@<TRIPOS>MOLECULE
HST
184 204 1 0 1
SMALL
USER_CHARGES
@<TRIPOS>CRYSIN
   42.6523    43.1436    43.2565    90.0000    90.0000    90.0000  1  1
@<TRIPOS>ATOM
       1 C1          23.6587    19.1163    13.1820 ca            1 HST       -0.079381
       2 C2          25.5164    20.5372    14.8246 ca            1 HST        0.094407
       3 C3          23.3288    19.5180    14.5460 ca            1 HST       -0.086793
       4 C4          24.9502    19.4838    12.7159 ca            1 HST        0.094407
       5 C5          25.8543    20.2256    13.5203 ca            1 HST       -0.145993
       6 C6          24.2556    20.1931    15.3470 ca            1 HST       -0.078493
       7 O1          26.5097    21.2227    15.4732 os            1 HST       -0.354893
       8 C7          23.9764    20.6525    16.7803 c3            1 HST        0.028407
       9 C8          26.3332    22.6455    15.6178 c3            1 HST        0.385107
      10 O2          25.7315    22.9869    16.8944 os            1 HST       -0.354893
      11 C9          24.3663    23.1936    16.8062 ca            1 HST        0.094407
      12 C10         23.4437    22.0792    16.7454 ca            1 HST       -0.078493
      13 C11         22.0920    22.4553    16.4513 ca            1 HST       -0.086793
      14 C12         23.9158    24.5293    16.5970 ca            1 HST       -0.145993
      15 C13         21.6542    23.7914    16.2177 ca            1 HST       -0.078493
      16 C14         22.5787    24.8415    16.3397 ca            1 HST        0.094407
      17 O3          22.1898    26.1231    16.0414 os            1 HST       -0.354893
      18 C15         20.2557    24.2174    15.9505 c3            1 HST        0.028407
      19 C16         19.9476    24.1763    14.4903 ca            1 HST       -0.078493
      20 C17         20.1970    25.3148    13.7196 ca            1 HST        0.094407
      21 C18         22.0882    26.4756    14.6599 c3            1 HST        0.385107
      22 O4          20.6890    26.4812    14.2548 os            1 HST       -0.354893
      23 O5          25.3192    19.3154    11.3812 os            1 HST       -0.354893
      24 C19         22.6725    18.4298    12.1835 c3            1 HST        0.028407
      25 C20         21.9384    19.5437    11.4144 ca            1 HST       -0.078493
      26 O6          23.6718    19.6332     9.7619 os            1 HST       -0.354893
      27 C21         22.4466    20.0061    10.2007 ca            1 HST        0.094407
      28 C22         19.8721    25.4277    12.3758 ca            1 HST       -0.145993
      29 C23         19.4116    24.2596    11.7631 ca            1 HST        0.094407
      30 C24         21.7629    20.9617     9.4226 ca            1 HST       -0.145993
      31 C25         20.6114    21.6008     9.9471 ca            1 HST        0.094407
      32 O7          19.2309    24.3230    10.4150 os            1 HST       -0.354893
      33 O8          20.1047    22.6359     9.1036 os            1 HST       -0.354893
      34 C26         20.3561    23.9673     9.5825 c3            1 HST        0.385107
      35 C27         20.6977    20.0443    11.8381 ca            1 HST       -0.086793
      36 C28         20.0600    21.1252    11.1315 ca            1 HST       -0.078493
      37 C29         19.5826    22.9669    13.8422 ca            1 HST       -0.086793
      38 C30         18.8129    21.7684    11.6887 c3            1 HST        0.028407
      39 C31         19.2709    23.0203    12.4512 ca            1 HST       -0.078493
      40 C32         24.7619    20.2989    10.4368 c3            1 HST        0.385107
      41 C33         19.2071    23.5282    16.8625 c3            1 HST       -0.059693
      42 C34         19.3153    23.9683    18.3347 c3            1 HST       -0.187693
      43 C35         18.3172    23.3445    19.3318 c             1 HST        0.906807
      44 O9          17.1270    23.6596    19.2549 o             1 HST       -0.865693
      45 C36         23.0541    19.6906    17.6131 c3            1 HST       -0.059693
      46 C37         22.9553    20.1618    19.1552 c3            1 HST       -0.187693
      47 C38         24.2270    20.2919    19.9509 c             1 HST        0.906807
      48 O10         24.8906    19.2609    20.2210 o             1 HST       -0.865693
      49 C39         21.8353    17.3455    12.9071 c3            1 HST       -0.059693
      50 C40         21.2551    16.3958    11.8965 c3            1 HST       -0.187693
      51 C41         20.7748    15.1112    12.5853 c             1 HST        0.906807
      52 O11         21.4877    14.1392    12.7088 o             1 HST       -0.865693
      53 C42         17.7679    20.7593    12.3401 c3            1 HST       -0.059693
      54 C43         16.4476    21.4297    12.7037 c3            1 HST       -0.187693
      55 C44         15.5099    21.6112    11.4859 c             1 HST        0.906807
      56 O12         15.0100    22.6630    11.2117 o             1 HST       -0.865693
      57 C45         27.6337    23.3744    15.3687 ca            1 HST       -0.077493
      58 C46         29.9279    24.8114    14.6019 ca            1 HST       -0.142593
      59 C47         27.7867    24.6945    15.7222 ca            1 HST       -0.129193
      60 C48         28.6704    22.7215    14.6488 ca            1 HST       -0.129193
      61 C49         29.8226    23.4359    14.2152 ca            1 HST        0.108807
      62 C50         28.9192    25.4324    15.3521 ca            1 HST        0.108807
      63 C51         25.9172    20.7851     9.5291 ca            1 HST       -0.077493
      64 C52         27.9548    21.7926     7.8380 ca            1 HST       -0.142593
      65 C53         25.6211    21.5052     8.4051 ca            1 HST       -0.129193
      66 C54         27.2925    20.6589     9.9120 ca            1 HST       -0.129193
      67 C55         28.2867    21.0547     8.9635 ca            1 HST        0.108807
      68 C56         26.6218    21.8759     7.5192 ca            1 HST        0.108807
      69 C57         20.5831    24.9156     8.3694 ca            1 HST       -0.077493
      70 C58         21.2040    26.8349     6.3976 ca            1 HST       -0.142593
      71 C59         20.1130    26.2493     8.4611 ca            1 HST       -0.129193
      72 C60         21.3504    24.5712     7.3049 ca            1 HST       -0.129193
      73 C61         21.6772    25.4937     6.3447 ca            1 HST        0.108807
      74 C62         20.3388    27.2319     7.4697 ca            1 HST        0.108807
      75 C63         22.7052    27.8437    14.3223 ca            1 HST       -0.077493
      76 C64         24.1647    30.0544    13.3453 ca            1 HST       -0.142593
      77 C65         22.4178    28.4274    13.0817 ca            1 HST       -0.129193
      78 C66         23.7681    28.3671    15.0496 ca            1 HST       -0.129193
      79 C67         24.5444    29.4407    14.5760 ca            1 HST        0.108807
      80 C68         23.0975    29.5517    12.6046 ca            1 HST        0.108807
      81 O13         29.6125    20.8269     9.2516 os            1 HST       -0.300893
      82 O14         22.4162    25.1960     5.1619 os            1 HST       -0.300893
      83 O15         19.9497    28.5201     7.7327 os            1 HST       -0.300893
      84 O16         30.7739    22.9519    13.3565 os            1 HST       -0.300893
      85 O17         29.1215    26.7971    15.7193 os            1 HST       -0.300893
      86 O18         22.9154    30.0257    11.3165 os            1 HST       -0.300893
      87 O19         25.5942    29.9247    15.3201 os            1 HST       -0.300893
      88 C69         23.2397    24.1065     5.1191 ca            1 HST        0.065707
      89 C70         24.6946    21.7327     5.0837 ca            1 HST       -0.108993
      90 C71         24.4060    23.9730     5.8946 ca            1 HST       -0.176193
      91 C72         22.6977    23.0330     4.2956 ca            1 HST       -0.108993
      92 C73         23.4298    21.7653     4.3989 ca            1 HST       -0.085593
      93 C74         25.1317    22.8148     5.8347 ca            1 HST        0.065707
      94 O20         26.3207    22.6884     6.4609 os            1 HST       -0.300893
      95 C75         30.5938    21.7947    12.6152 ca            1 HST        0.065707
      96 C76         29.9860    19.4114    11.1409 ca            1 HST       -0.108993
      97 C77         30.6144    20.4961    13.2519 ca            1 HST       -0.108993
      98 C78         30.3498    21.8982    11.2617 ca            1 HST       -0.176193
      99 C79         30.0133    20.7131    10.5502 ca            1 HST        0.065707
     100 C80         30.2216    19.3271    12.5032 ca            1 HST       -0.085593
     101 C81         20.1909    29.1387     8.9485 ca            1 HST        0.065707
     102 C82         20.5850    30.4437    11.3307 ca            1 HST       -0.108993
     103 C83         19.1121    29.7042     9.6319 ca            1 HST       -0.108993
     104 C84         21.4764    29.1830     9.4427 ca            1 HST       -0.176193
     105 C85         21.6827    29.8733    10.6624 ca            1 HST        0.065707
     106 C86         19.2611    30.2639    10.9172 ca            1 HST       -0.085593
     107 C87         18.0685    30.7729    11.6466 c             1 HST        0.919807
     108 O21         16.9913    30.8121    11.0653 o             1 HST       -0.835293
     109 C88         26.5396    28.0113    19.7604 c             1 HST        0.919807
     110 O22         26.8983    27.0509    20.3503 o             1 HST       -0.835293
     111 C89         30.0111    17.8910    12.9964 c             1 HST        0.919807
     112 O23         29.8958    16.9611    12.2174 o             1 HST       -0.835293
     113 O24         18.8033    22.8831    20.3623 o             1 HST       -0.865693
     114 O25         15.3447    20.6150    10.7546 o             1 HST       -0.865693
     115 O26         19.6374    15.1571    13.0329 o             1 HST       -0.865693
     116 C90         22.9503    20.5609     3.5695 c             1 HST        0.919807
     117 O27         23.5109    19.4845     3.6977 o             1 HST       -0.835293
     118 O28         25.8042    28.7885    20.2720 o             1 HST       -0.835293
     119 O29         18.2170    31.3030    12.8048 o             1 HST       -0.835293
     120 O30         21.7932    20.5521     3.0955 o             1 HST       -0.835293
     121 O31         29.9455    17.8117    14.2315 o             1 HST       -0.835293
     122 O32         24.4567    21.3829    20.5058 o             1 HST       -0.865693
     123 C91         28.1605    27.5093    16.3096 ca            1 HST        0.065707
     124 C92         26.1241    29.0126    17.4589 ca            1 HST       -0.108993
     125 C93         27.3842    28.3717    15.5558 ca            1 HST       -0.176193
     126 C94         27.9029    27.4463    17.6890 ca            1 HST       -0.108993
     127 C95         26.8278    28.1401    18.2911 ca            1 HST       -0.085593
     128 C96         26.3894    29.1712    16.1493 ca            1 HST        0.065707
     129 H1          22.3503    19.3217    14.9741 ha            1 HST        0.171207
     130 H2          26.8242    20.5118    13.1245 ha            1 HST        0.154707
     131 H3          24.9771    20.6518    17.2296 hc            1 HST        0.058007
     132 H4          25.7088    22.9436    14.7677 h2            1 HST        0.068607
     133 H5          21.4187    21.6399    16.2038 ha            1 HST        0.171207
     134 H6          24.6458    25.3255    16.7095 ha            1 HST        0.154707
     135 H7          20.1307    25.2656    16.2484 hc            1 HST        0.058007
     136 H8          22.6270    25.7707    14.0162 h2            1 HST        0.068607
     137 H9          23.3460    17.9295    11.4768 hc            1 HST        0.058007
     138 H10         20.0840    26.3146    11.7859 ha            1 HST        0.154707
     139 H11         22.1354    21.3026     8.4610 ha            1 HST        0.154707
     140 H12         21.2553    23.8391    10.1960 h2            1 HST        0.068607
     141 H13         20.3355    19.6771    12.7938 ha            1 HST        0.171207
     142 H14         19.4678    22.1109    14.5006 ha            1 HST        0.171207
     143 H15         18.3029    22.0441    10.7576 hc            1 HST        0.058007
     144 H16         24.3848    21.2131    10.9095 h2            1 HST        0.068607
     145 H17         18.2052    23.8772    16.5840 hc            1 HST        0.058607
     146 H18         19.2262    22.4358    16.7648 hc            1 HST        0.058607
     147 H19         20.3307    23.7238    18.6700 hc            1 HST        0.019207
     148 H20         19.2039    25.0558    18.4250 hc            1 HST        0.019207
     149 H21         23.5695    18.7254    17.5352 hc            1 HST        0.058607
     150 H22         22.0790    19.5875    17.1215 hc            1 HST        0.058607
     151 H23         22.3665    21.0726    19.3195 hc            1 HST        0.019207
     152 H24         22.3658    19.4217    19.7101 hc            1 HST        0.019207
     153 H25         22.5292    16.7665    13.5288 hc            1 HST        0.058607
     154 H26         21.0485    17.7686    13.5435 hc            1 HST        0.058607
     155 H27         20.4604    16.8132    11.2661 hc            1 HST        0.019207
     156 H28         22.0315    16.0506    11.2029 hc            1 HST        0.019207
     157 H29         17.7068    19.8333    11.7553 hc            1 HST        0.058607
     158 H30         18.2355    20.4129    13.2698 hc            1 HST        0.058607
     159 H31         15.9350    20.7431    13.3885 hc            1 HST        0.019207
     160 H32         16.6906    22.4004    13.1529 hc            1 HST        0.019207
     161 H33         30.7100    25.4414    14.1885 ha            1 HST        0.159907
     162 H34         27.0452    25.1946    16.3383 ha            1 HST        0.151007
     163 H35         28.5132    21.6808    14.3815 ha            1 HST        0.151007
     164 H36         28.7344    22.0384     7.1229 ha            1 HST        0.159907
     165 H37         24.5935    21.6833     8.1022 ha            1 HST        0.151007
     166 H38         27.5519    20.0394    10.7653 ha            1 HST        0.151007
     167 H39         21.4575    27.5159     5.5905 ha            1 HST        0.159907
     168 H40         19.4945    26.4962     9.3190 ha            1 HST        0.151007
     169 H41         21.7802    23.5749     7.2594 ha            1 HST        0.151007
     170 H42         24.7697    30.8572    12.9343 ha            1 HST        0.159907
     171 H43         21.5146    28.1795    12.5320 ha            1 HST        0.151007
     172 H44         23.9853    28.0061    16.0505 ha            1 HST        0.151007
     173 H45         25.2515    20.8008     5.1114 ha            1 HST        0.165507
     174 H46         24.7313    24.8443     6.4555 ha            1 HST        0.130107
     175 H47         21.7921    23.1723     3.7126 ha            1 HST        0.165507
     176 H48         29.8978    18.5749    10.4539 ha            1 HST        0.165507
     177 H49         30.8436    20.3403    14.3019 ha            1 HST        0.165507
     178 H50         30.2785    22.8806    10.8044 ha            1 HST        0.130107
     179 H51         20.8305    30.8887    12.2904 ha            1 HST        0.165507
     180 H52         18.1156    29.4909     9.2566 ha            1 HST        0.165507
     181 H53         22.2828    28.6262     8.9747 ha            1 HST        0.130107
     182 H54         25.2469    29.5305    17.8354 ha            1 HST        0.165507
     183 H55         27.6361    28.5281    14.5111 ha            1 HST        0.130107
     184 H56         28.5816    26.8077    18.2467 ha            1 HST        0.165507
@<TRIPOS>BOND
       1      126      127 1
       2      125      128 1
       3      124      127 1
       4      124      128 1
       5      123      125 1
       6      123      126 1
       7      116      117 1
       8      116      120 1
       9      111      112 1
      10      111      121 1
      11      109      110 1
      12      109      118 1
      13      109      127 1
      14      107      108 1
      15      107      119 1
      16      106      107 1
      17      104      105 1
      18      103      106 1
      19      102      105 1
      20      102      106 1
      21      101      103 1
      22      101      104 1
      23      100      111 1
      24       98       99 1
      25       97      100 1
      26       96       99 1
      27       96      100 1
      28       95       97 1
      29       95       98 1
      30       93       94 1
      31       92      116 1
      32       91       92 1
      33       90       93 1
      34       89       92 1
      35       89       93 1
      36       88       90 1
      37       88       91 1
      38       87      128 1
      39       86      105 1
      40       85      123 1
      41       84       95 1
      42       83      101 1
      43       82       88 1
      44       81       99 1
      45       80       86 1
      46       79       87 1
      47       78       79 1
      48       77       80 1
      49       76       79 1
      50       76       80 1
      51       75       77 1
      52       75       78 1
      53       74       83 1
      54       73       82 1
      55       72       73 1
      56       71       74 1
      57       70       73 1
      58       70       74 1
      59       69       71 1
      60       69       72 1
      61       68       94 1
      62       67       81 1
      63       66       67 1
      64       65       68 1
      65       64       67 1
      66       64       68 1
      67       63       65 1
      68       63       66 1
      69       62       85 1
      70       61       84 1
      71       60       61 1
      72       59       62 1
      73       58       61 1
      74       58       62 1
      75       57       59 1
      76       57       60 1
      77       55       56 1
      78       55      114 1
      79       54       55 1
      80       53       54 1
      81       51       52 1
      82       51      115 1
      83       50       51 1
      84       49       50 1
      85       47       48 1
      86       47      122 1
      87       46       47 1
      88       45       46 1
      89       43       44 1
      90       43      113 1
      91       42       43 1
      92       41       42 1
      93       40       63 1
      94       38       39 1
      95       38       53 1
      96       37       39 1
      97       36       38 1
      98       35       36 1
      99       34       69 1
     100       33       34 1
     101       32       34 1
     102       31       33 1
     103       31       36 1
     104       30       31 1
     105       29       32 1
     106       29       39 1
     107       28       29 1
     108       27       30 1
     109       26       27 1
     110       26       40 1
     111       25       27 1
     112       25       35 1
     113       24       25 1
     114       24       49 1
     115       23       40 1
     116       21       22 1
     117       21       75 1
     118       20       22 1
     119       20       28 1
     120       19       20 1
     121       19       37 1
     122       18       19 1
     123       18       41 1
     124       17       21 1
     125       16       17 1
     126       15       16 1
     127       15       18 1
     128       14       16 1
     129       13       15 1
     130       12       13 1
     131       11       12 1
     132       11       14 1
     133       10       11 1
     134        9       10 1
     135        9       57 1
     136        8       12 1
     137        8       45 1
     138        7        9 1
     139        6        8 1
     140        4        5 1
     141        4       23 1
     142        3        6 1
     143        2        5 1
     144        2        6 1
     145        2        7 1
     146        1        3 1
     147        1        4 1
     148        1       24 1
     149      126      184 1
     150      125      183 1
     151      124      182 1
     152      104      181 1
     153      103      180 1
     154      102      179 1
     155       98      178 1
     156       97      177 1
     157       96      176 1
     158       91      175 1
     159       90      174 1
     160       89      173 1
     161       78      172 1
     162       77      171 1
     163       76      170 1
     164       72      169 1
     165       71      168 1
     166       70      167 1
     167       66      166 1
     168       65      165 1
     169       64      164 1
     170       60      163 1
     171       59      162 1
     172       58      161 1
     173       54      159 1
     174       54      160 1
     175       53      157 1
     176       53      158 1
     177       50      155 1
     178       50      156 1
     179       49      153 1
     180       49      154 1
     181       46      151 1
     182       46      152 1
     183       45      149 1
     184       45      150 1
     185       42      147 1
     186       42      148 1
     187       41      145 1
     188       41      146 1
     189       40      144 1
     190       38      143 1
     191       37      142 1
     192       35      141 1
     193       34      140 1
     194       30      139 1
     195       28      138 1
     196       24      137 1
     197       21      136 1
     198       18      135 1
     199       14      134 1
     200       13      133 1
     201        9      132 1
     202        8      131 1
     203        5      130 1
     204        3      129 1
@<TRIPOS>SUBSTRUCTURE
       1 HST             1 RESIDUE    0 **** ROOT      0
