@<TRIPOS>MOLECULE
HST
184 204 1 0 1
SMALL
USER_CHARGES
@<TRIPOS>CRYSIN
   42.7860    43.2787    43.3100    90.0000    90.0000    90.0000  1  1
@<TRIPOS>ATOM
       1 C1          25.6978    11.5229    18.6238 ca            1 HST       -0.079381
       2 C2          25.0946     9.2415    20.2431 ca            1 HST        0.094407
       3 C3          26.4565    11.2150    19.8165 ca            1 HST       -0.086793
       4 C4          24.7059    10.5824    18.3283 ca            1 HST        0.094407
       5 C5          24.3545     9.4986    19.1166 ca            1 HST       -0.145993
       6 C6          26.0934    10.1360    20.6940 ca            1 HST       -0.078493
       7 O1          24.8511     8.0373    20.8805 os            1 HST       -0.354893
       8 C7          26.8965     9.8072    21.9891 c3            1 HST        0.028407
       9 C8          25.8317     6.9409    20.7173 c3            1 HST        0.385107
      10 O2          26.7089     6.8883    21.8403 os            1 HST       -0.354893
      11 C9          27.9166     7.5103    21.6713 ca            1 HST        0.094407
      12 C10         28.0733     8.8423    21.6965 ca            1 HST       -0.078493
      13 C11         29.3248     9.4383    21.3229 ca            1 HST       -0.086793
      14 C12         28.9358     6.6521    21.2678 ca            1 HST       -0.145993
      15 C13         30.3799     8.5859    20.8688 ca            1 HST       -0.078493
      16 C14         30.2257     7.1845    20.9339 ca            1 HST        0.094407
      17 O3          31.0928     6.3166    20.4764 os            1 HST       -0.354893
      18 C15         31.7652     9.0784    20.3482 c3            1 HST        0.028407
      19 C16         31.6766     9.3271    18.8470 ca            1 HST       -0.078493
      20 C17         31.9988     8.2365    17.9959 ca            1 HST        0.094407
      21 C18         31.1185     6.1705    19.0312 c3            1 HST        0.385107
      22 O4          32.1980     6.9545    18.5010 os            1 HST       -0.354893
      23 O5          24.0660    10.5935    17.1037 os            1 HST       -0.354893
      24 C19         26.0852    12.6612    17.6832 c3            1 HST        0.028407
      25 C20         27.1325    12.2370    16.6426 ca            1 HST       -0.078493
      26 O6          25.4143    11.2005    15.2283 os            1 HST       -0.354893
      27 C21         26.7284    11.5208    15.4723 ca            1 HST        0.094407
      28 C22         32.0032     8.3747    16.6093 ca            1 HST       -0.145993
      29 C23         31.7139     9.6078    16.0888 ca            1 HST        0.094407
      30 C24         27.6412    11.0890    14.6006 ca            1 HST       -0.145993
      31 C25         29.0551    11.2820    14.7324 ca            1 HST        0.094407
      32 O7          31.6563     9.6524    14.7651 os            1 HST       -0.354893
      33 O8          29.8509    10.7090    13.7998 os            1 HST       -0.354893
      34 C26         30.3802     9.4385    14.1515 c3            1 HST        0.385107
      35 C27         28.5155    12.3601    16.8126 ca            1 HST       -0.086793
      36 C28         29.4557    11.9697    15.8767 ca            1 HST       -0.078493
      37 C29         31.2897    10.5979    18.2573 ca            1 HST       -0.086793
      38 C30         30.9293    12.0049    16.1320 c3            1 HST        0.028407
      39 C31         31.3675    10.7650    16.8819 ca            1 HST       -0.078493
      40 C32         24.9526    10.1420    16.0606 c3            1 HST        0.385107
      41 C33         32.4929    10.2846    21.0879 c3            1 HST       -0.059693
      42 C34         32.3135    10.1629    22.6401 c3            1 HST       -0.187693
      43 C35         33.0794    11.1979    23.4830 c             1 HST        0.906807
      44 O9          32.4536    12.0215    24.1323 o             1 HST       -0.865693
      45 C36         27.2657    11.0961    22.7682 c3            1 HST       -0.059693
      46 C37         27.9442    10.9628    24.1069 c3            1 HST       -0.187693
      47 C38         27.8143    12.3676    24.8859 c             1 HST        0.906807
      48 O10         28.7280    13.1915    24.7596 o             1 HST       -0.865693
      49 C39         26.3017    14.0241    18.4672 c3            1 HST       -0.059693
      50 C40         26.2314    15.2333    17.5047 c3            1 HST       -0.187693
      51 C41         26.3304    16.5779    18.1600 c             1 HST        0.906807
      52 O11         25.7330    17.6029    17.8396 o             1 HST       -0.865693
      53 C42         31.5196    13.3076    16.7169 c3            1 HST       -0.059693
      54 C43         30.8590    14.4121    15.9374 c3            1 HST       -0.187693
      55 C44         31.3092    15.7076    16.5130 c             1 HST        0.906807
      56 O12         30.9445    15.9528    17.6804 o             1 HST       -0.865693
      57 C45         24.9641     5.6824    20.4866 ca            1 HST       -0.077493
      58 C46         23.6956     3.1884    20.0674 ca            1 HST       -0.142593
      59 C47         25.6456     4.4385    20.8244 ca            1 HST       -0.129193
      60 C48         23.7033     5.6174    19.8238 ca            1 HST       -0.129193
      61 C49         23.0695     4.3767    19.6389 ca            1 HST        0.108807
      62 C50         24.9926     3.2117    20.5850 ca            1 HST        0.108807
      63 C51         24.2486     9.0800    15.2041 ca            1 HST       -0.077493
      64 C52         23.0143     7.0808    13.5997 ca            1 HST       -0.142593
      65 C53         24.7821     8.7424    13.9330 ca            1 HST       -0.129193
      66 C54         23.0592     8.4212    15.5996 ca            1 HST       -0.129193
      67 C55         22.4550     7.3926    14.8504 ca            1 HST        0.108807
      68 C56         24.1685     7.7901    13.1400 ca            1 HST        0.108807
      69 C57         30.5805     8.5954    12.8888 ca            1 HST       -0.077493
      70 C58         30.7088     6.9169    10.6283 ca            1 HST       -0.142593
      71 C59         31.4804     7.5787    12.8088 ca            1 HST       -0.129193
      72 C60         29.7454     8.7658    11.7670 ca            1 HST       -0.129193
      73 C61         29.8711     7.9699    10.6105 ca            1 HST        0.108807
      74 C62         31.5288     6.6528    11.7395 ca            1 HST        0.108807
      75 C63         31.4086     4.7213    18.5711 ca            1 HST       -0.077493
      76 C64         31.4654     2.0449    17.5617 ca            1 HST       -0.142593
      77 C65         31.9904     4.4475    17.3529 ca            1 HST       -0.129193
      78 C66         30.6999     3.6843    19.1776 ca            1 HST       -0.129193
      79 C67         30.6921     2.3913    18.6211 ca            1 HST        0.108807
      80 C68         32.0172     3.1087    16.8021 ca            1 HST        0.108807
      81 O13         21.3844     6.6941    15.3070 os            1 HST       -0.300893
      82 O14         28.9178     8.0472     9.6087 os            1 HST       -0.300893
      83 O15         32.3089     5.5327    11.7689 os            1 HST       -0.300893
      84 O16         21.7914     4.2755    19.2965 os            1 HST       -0.300893
      85 O17         25.5984     1.9965    21.0263 os            1 HST       -0.300893
      86 O18         32.6764     2.8255    15.6425 os            1 HST       -0.300893
      87 O19         30.0308     1.3393    19.2561 os            1 HST       -0.300893
      88 C69         27.5714     8.3967     9.8705 ca            1 HST        0.065707
      89 C70         24.9512     9.0863    10.2746 ca            1 HST       -0.108993
      90 C71         26.8385     7.7171    10.8572 ca            1 HST       -0.176193
      91 C72         26.9900     9.3619     9.0275 ca            1 HST       -0.108993
      92 C73         25.5997     9.7348     9.2437 ca            1 HST       -0.085593
      93 C74         25.4892     8.0477    11.0800 ca            1 HST        0.065707
      94 O20         24.6860     7.3046    11.9860 os            1 HST       -0.300893
      95 C75         21.1834     5.2779    18.6429 ca            1 HST        0.065707
      96 C76         20.1515     7.4216    17.2318 ca            1 HST       -0.108993
      97 C77         20.1910     6.0178    19.2688 ca            1 HST       -0.108993
      98 C78         21.5520     5.5226    17.3150 ca            1 HST       -0.176193
      99 C79         21.0583     6.6298    16.6375 ca            1 HST        0.065707
     100 C80         19.7974     7.1631    18.5697 ca            1 HST       -0.085593
     101 C81         32.9723     5.1898    12.8842 ca            1 HST        0.065707
     102 C82         34.3592     4.4625    15.1200 ca            1 HST       -0.108993
     103 C83         34.1976     5.8242    13.1648 ca            1 HST       -0.108993
     104 C84         32.4118     4.2497    13.6876 ca            1 HST       -0.176193
     105 C85         33.1111     3.8279    14.8447 ca            1 HST        0.065707
     106 C86         34.9473     5.4754    14.3222 ca            1 HST       -0.085593
     107 C87         36.3014     6.0456    14.7280 c             1 HST        0.919807
     108 O21         36.6232     7.1214    14.2001 o             1 HST       -0.835293
     109 C88         29.2095     0.4262    24.0584 c             1 HST        0.919807
     110 O22         28.3665     0.2169    24.9315 o             1 HST       -0.835293
     111 C89         18.8024     8.0836    19.2519 c             1 HST        0.919807
     112 O23         18.5375     9.1902    18.7959 o             1 HST       -0.835293
     113 O24         34.2986    11.2927    23.3814 o             1 HST       -0.865693
     114 O25         32.2056    16.3621    16.0005 o             1 HST       -0.865693
     115 O26         27.1120    16.5926    19.0685 o             1 HST       -0.865693
     116 C90         24.8246    10.6401     8.3266 c             1 HST        0.919807
     117 O27         23.7037    11.0083     8.5764 o             1 HST       -0.835293
     118 O28         30.2857    -0.0622    24.1697 o             1 HST       -0.835293
     119 O29         37.1121     5.3568    15.3270 o             1 HST       -0.835293
     120 O30         25.3698    11.0724     7.3874 o             1 HST       -0.835293
     121 O31         18.2501     7.7527    20.3317 o             1 HST       -0.835293
     122 O32         26.8162    12.7089    25.5205 o             1 HST       -0.865693
     123 C91         26.9499     1.8521    21.1946 ca            1 HST        0.065707
     124 C92         29.6611     0.9316    21.5596 ca            1 HST       -0.108993
     125 C93         27.8162     1.7542    20.0936 ca            1 HST       -0.176193
     126 C94         27.4856     1.4416    22.4771 ca            1 HST       -0.108993
     127 C95         28.7553     0.9875    22.7114 ca            1 HST       -0.085593
     128 C96         29.1712     1.4170    20.3294 ca            1 HST        0.065707
     129 H1          27.3318    11.7812    20.1208 ha            1 HST        0.171207
     130 H2          23.6572     8.7543    18.7434 ha            1 HST        0.154707
     131 H3          26.1709     9.3478    22.6714 hc            1 HST        0.058007
     132 H4          26.3710     7.0020    19.7650 h2            1 HST        0.068607
     133 H5          29.4293    10.5156    21.2343 ha            1 HST        0.171207
     134 H6          28.6421     5.6080    21.2138 ha            1 HST        0.154707
     135 H7          32.5469     8.3263    20.5107 hc            1 HST        0.058007
     136 H8          30.1470     6.5192    18.6622 h2            1 HST        0.068607
     137 H9          25.1420    12.8125    17.1441 hc            1 HST        0.058007
     138 H10         32.2073     7.5341    15.9526 ha            1 HST        0.154707
     139 H11         27.2612    10.6046    13.7060 ha            1 HST        0.154707
     140 H12         29.6838     8.8565    14.7662 h2            1 HST        0.068607
     141 H13         28.9327    12.8516    17.6866 ha            1 HST        0.171207
     142 H14         31.0920    11.4356    18.9196 ha            1 HST        0.171207
     143 H15         31.4608    12.1238    15.1799 hc            1 HST        0.058007
     144 H16         25.8117     9.6352    16.5152 h2            1 HST        0.068607
     145 H17         33.5501    10.3426    20.8012 hc            1 HST        0.058607
     146 H18         32.0359    11.2508    20.8412 hc            1 HST        0.058607
     147 H19         31.2961    10.3471    23.0064 hc            1 HST        0.019207
     148 H20         32.5850     9.1804    23.0455 hc            1 HST        0.019207
     149 H21         26.3259    11.6432    22.9124 hc            1 HST        0.058607
     150 H22         27.8829    11.7564    22.1467 hc            1 HST        0.058607
     151 H23         27.4199    10.1975    24.6921 hc            1 HST        0.019207
     152 H24         28.9859    10.6529    23.9584 hc            1 HST        0.019207
     153 H25         25.4694    14.1803    19.1644 hc            1 HST        0.058607
     154 H26         27.2118    14.1048    19.0743 hc            1 HST        0.058607
     155 H27         26.9501    15.1707    16.6784 hc            1 HST        0.019207
     156 H28         25.3364    15.2373    16.8706 hc            1 HST        0.019207
     157 H29         31.2896    13.4253    17.7829 hc            1 HST        0.058607
     158 H30         32.6011    13.4900    16.7341 hc            1 HST        0.058607
     159 H31         31.2108    14.2416    14.9125 hc            1 HST        0.019207
     160 H32         29.7622    14.4173    15.9240 hc            1 HST        0.019207
     161 H33         23.1329     2.2596    20.0742 ha            1 HST        0.159907
     162 H34         26.5674     4.3827    21.3958 ha            1 HST        0.151007
     163 H35         23.2048     6.5468    19.5647 ha            1 HST        0.151007
     164 H36         22.5145     6.3684    12.9500 ha            1 HST        0.159907
     165 H37         25.5784     9.2943    13.4424 ha            1 HST        0.151007
     166 H38         22.6190     8.6765    16.5590 ha            1 HST        0.151007
     167 H39         30.7075     6.1153     9.8957 ha            1 HST        0.159907
     168 H40         32.2027     7.4504    13.6096 ha            1 HST        0.151007
     169 H41         29.0488     9.5950    11.6851 ha            1 HST        0.151007
     170 H42         31.3786     1.0913    17.0492 ha            1 HST        0.159907
     171 H43         32.3320     5.3017    16.7758 ha            1 HST        0.151007
     172 H44         30.0490     3.8458    20.0318 ha            1 HST        0.151007
     173 H45         23.9038     9.3603    10.3597 ha            1 HST        0.165507
     174 H46         27.2864     6.8934    11.4052 ha            1 HST        0.130107
     175 H47         27.6406     9.7843     8.2674 ha            1 HST        0.165507
     176 H48         19.7223     8.2284    16.6451 ha            1 HST        0.165507
     177 H49         19.9567     5.7700    20.2998 ha            1 HST        0.165507
     178 H50         22.2908     4.8782    16.8478 ha            1 HST        0.130107
     179 H51         34.8727     4.2249    16.0469 ha            1 HST        0.165507
     180 H52         34.5364     6.6271    12.5168 ha            1 HST        0.165507
     181 H53         31.4348     3.8165    13.4945 ha            1 HST        0.130107
     182 H54         30.6407     0.5030    21.7493 ha            1 HST        0.165507
     183 H55         27.4826     2.0138    19.0933 ha            1 HST        0.130107
     184 H56         26.7266     1.3336    23.2463 ha            1 HST        0.165507
@<TRIPOS>BOND
       1      126      127 1
       2      125      128 1
       3      124      127 1
       4      124      128 1
       5      123      125 1
       6      123      126 1
       7      116      117 1
       8      116      120 1
       9      111      112 1
      10      111      121 1
      11      109      110 1
      12      109      118 1
      13      109      127 1
      14      107      108 1
      15      107      119 1
      16      106      107 1
      17      104      105 1
      18      103      106 1
      19      102      105 1
      20      102      106 1
      21      101      103 1
      22      101      104 1
      23      100      111 1
      24       98       99 1
      25       97      100 1
      26       96       99 1
      27       96      100 1
      28       95       97 1
      29       95       98 1
      30       93       94 1
      31       92      116 1
      32       91       92 1
      33       90       93 1
      34       89       92 1
      35       89       93 1
      36       88       90 1
      37       88       91 1
      38       87      128 1
      39       86      105 1
      40       85      123 1
      41       84       95 1
      42       83      101 1
      43       82       88 1
      44       81       99 1
      45       80       86 1
      46       79       87 1
      47       78       79 1
      48       77       80 1
      49       76       79 1
      50       76       80 1
      51       75       77 1
      52       75       78 1
      53       74       83 1
      54       73       82 1
      55       72       73 1
      56       71       74 1
      57       70       73 1
      58       70       74 1
      59       69       71 1
      60       69       72 1
      61       68       94 1
      62       67       81 1
      63       66       67 1
      64       65       68 1
      65       64       67 1
      66       64       68 1
      67       63       65 1
      68       63       66 1
      69       62       85 1
      70       61       84 1
      71       60       61 1
      72       59       62 1
      73       58       61 1
      74       58       62 1
      75       57       59 1
      76       57       60 1
      77       55       56 1
      78       55      114 1
      79       54       55 1
      80       53       54 1
      81       51       52 1
      82       51      115 1
      83       50       51 1
      84       49       50 1
      85       47       48 1
      86       47      122 1
      87       46       47 1
      88       45       46 1
      89       43       44 1
      90       43      113 1
      91       42       43 1
      92       41       42 1
      93       40       63 1
      94       38       39 1
      95       38       53 1
      96       37       39 1
      97       36       38 1
      98       35       36 1
      99       34       69 1
     100       33       34 1
     101       32       34 1
     102       31       33 1
     103       31       36 1
     104       30       31 1
     105       29       32 1
     106       29       39 1
     107       28       29 1
     108       27       30 1
     109       26       27 1
     110       26       40 1
     111       25       27 1
     112       25       35 1
     113       24       25 1
     114       24       49 1
     115       23       40 1
     116       21       22 1
     117       21       75 1
     118       20       22 1
     119       20       28 1
     120       19       20 1
     121       19       37 1
     122       18       19 1
     123       18       41 1
     124       17       21 1
     125       16       17 1
     126       15       16 1
     127       15       18 1
     128       14       16 1
     129       13       15 1
     130       12       13 1
     131       11       12 1
     132       11       14 1
     133       10       11 1
     134        9       10 1
     135        9       57 1
     136        8       12 1
     137        8       45 1
     138        7        9 1
     139        6        8 1
     140        4        5 1
     141        4       23 1
     142        3        6 1
     143        2        5 1
     144        2        6 1
     145        2        7 1
     146        1        3 1
     147        1        4 1
     148        1       24 1
     149      126      184 1
     150      125      183 1
     151      124      182 1
     152      104      181 1
     153      103      180 1
     154      102      179 1
     155       98      178 1
     156       97      177 1
     157       96      176 1
     158       91      175 1
     159       90      174 1
     160       89      173 1
     161       78      172 1
     162       77      171 1
     163       76      170 1
     164       72      169 1
     165       71      168 1
     166       70      167 1
     167       66      166 1
     168       65      165 1
     169       64      164 1
     170       60      163 1
     171       59      162 1
     172       58      161 1
     173       54      159 1
     174       54      160 1
     175       53      157 1
     176       53      158 1
     177       50      155 1
     178       50      156 1
     179       49      153 1
     180       49      154 1
     181       46      151 1
     182       46      152 1
     183       45      149 1
     184       45      150 1
     185       42      147 1
     186       42      148 1
     187       41      145 1
     188       41      146 1
     189       40      144 1
     190       38      143 1
     191       37      142 1
     192       35      141 1
     193       34      140 1
     194       30      139 1
     195       28      138 1
     196       24      137 1
     197       21      136 1
     198       18      135 1
     199       14      134 1
     200       13      133 1
     201        9      132 1
     202        8      131 1
     203        5      130 1
     204        3      129 1
@<TRIPOS>SUBSTRUCTURE
       1 HST             1 RESIDUE    0 **** ROOT      0
