@<TRIPOS>MOLECULE
GST
19 18 1 0 1
SMALL
USER_CHARGES
@<TRIPOS>CRYSIN
   42.7144    43.2063    43.3195    90.0000    90.0000    90.0000  1  1
@<TRIPOS>ATOM
       1 C1          20.9964    18.6603    13.4999 c             1 GST        0.907712
       2 C2          21.0220    21.8814    13.4944 c3            1 GST       -0.083484
       3 C3          22.1144    22.3128    15.6872 c3            1 GST       -0.083484
       4 C4          21.2787    19.2298    14.9232 c3            1 GST       -0.194484
       5 C5          20.3878    20.4022    15.4758 c3            1 GST       -0.047484
       6 C6          20.8249    21.7931    15.0224 c3            1 GST       -0.073084
       7 O1          21.7587    17.8937    12.8972 o             1 GST       -0.854684
       8 O2          19.8831    18.7111    12.9694 o             1 GST       -0.854684
       9 H1          20.1541    21.4495    12.9813 hc            1 GST        0.021916
      10 H2          21.9414    21.4051    13.1323 hc            1 GST        0.021916
      11 H3          20.9383    22.9060    13.1118 hc            1 GST        0.021916
      12 H4          22.3438    21.9028    16.6784 hc            1 GST        0.021916
      13 H5          22.1241    23.3958    15.8610 hc            1 GST        0.021916
      14 H6          22.9410    21.8998    15.0961 hc            1 GST        0.021916
      15 H7          22.3533    19.4041    15.0573 hc            1 GST        0.020416
      16 H8          20.9517    18.3939    15.5537 hc            1 GST        0.020416
      17 H9          20.3879    20.2381    16.5604 hc            1 GST        0.025416
      18 H10         19.3570    20.2601    15.1289 hc            1 GST        0.025416
      19 H11         20.0548    22.5398    15.2515 hc            1 GST        0.060516
@<TRIPOS>BOND
       1        5        6 1
       2        4        5 1
       3        3        6 1
       4        2        6 1
       5        1        4 1
       6        1        7 1
       7        1        8 1
       8        6       19 1
       9        5       17 1
      10        5       18 1
      11        4       15 1
      12        4       16 1
      13        3       12 1
      14        3       13 1
      15        3       14 1
      16        2        9 1
      17        2       10 1
      18        2       11 1
@<TRIPOS>SUBSTRUCTURE
       1 GST             1 RESIDUE    0 **** ROOT      0
