@<TRIPOS>MOLECULE
HST
184 204 1 0 1
SMALL
USER_CHARGES
@<TRIPOS>CRYSIN
   43.0055    42.8527    43.1078    90.0000    90.0000    90.0000  1  1
@<TRIPOS>ATOM
       1 C1          14.9503    18.5519    24.6775 ca            1 HST       -0.079381
       2 C2          12.7219    19.9413    23.6624 ca            1 HST        0.094407
       3 C3          14.3932    19.6475    25.3884 ca            1 HST       -0.086793
       4 C4          14.3327    18.1154    23.5048 ca            1 HST        0.094407
       5 C5          13.2173    18.8134    22.9787 ca            1 HST       -0.145993
       6 C6          13.3549    20.4247    24.8341 ca            1 HST       -0.078493
       7 O1          11.4373    20.3030    23.3788 os            1 HST       -0.354893
       8 C7          12.7498    21.6627    25.6200 c3            1 HST        0.028407
       9 C8          10.3117    19.8830    24.2097 c3            1 HST        0.385107
      10 O2           9.9348    20.9764    25.0217 os            1 HST       -0.354893
      11 C9          10.4143    21.0142    26.3404 ca            1 HST        0.094407
      12 C10         11.7512    21.1648    26.6864 ca            1 HST       -0.078493
      13 C11         12.1515    20.8551    27.9983 ca            1 HST       -0.086793
      14 C12          9.5071    20.4988    27.2979 ca            1 HST       -0.145993
      15 C13         11.2140    20.2999    28.9417 ca            1 HST       -0.078493
      16 C14          9.8867    20.0875    28.5516 ca            1 HST        0.094407
      17 O3           9.0359    19.5224    29.4205 os            1 HST       -0.354893
      18 C15         11.6985    20.0016    30.3843 c3            1 HST        0.028407
      19 C16         12.0928    18.5224    30.4259 ca            1 HST       -0.078493
      20 C17         11.0525    17.5666    30.6925 ca            1 HST        0.094407
      21 C18          9.0978    18.1095    29.5758 c3            1 HST        0.385107
      22 O4           9.7687    17.8940    30.8192 os            1 HST       -0.354893
      23 O5          14.7806    16.9907    22.9017 os            1 HST       -0.354893
      24 C19         16.2664    17.8576    25.2548 c3            1 HST        0.028407
      25 C20         15.8903    16.6936    26.1490 ca            1 HST       -0.078493
      26 O6          15.4873    15.1948    24.2177 os            1 HST       -0.354893
      27 C21         15.6034    15.3713    25.6057 ca            1 HST        0.094407
      28 C22         11.3282    16.2093    30.6847 ca            1 HST       -0.145993
      29 C23         12.5357    15.7727    30.2866 ca            1 HST        0.094407
      30 C24         15.0822    14.3367    26.4066 ca            1 HST       -0.145993
      31 C25         14.9672    14.5841    27.7661 ca            1 HST        0.094407
      32 O7          12.7019    14.4639    30.0332 os            1 HST       -0.354893
      33 O8          14.2375    13.6698    28.4510 os            1 HST       -0.354893
      34 C26         12.8678    13.9600    28.6518 c3            1 HST        0.385107
      35 C27         15.7292    16.9111    27.5329 ca            1 HST       -0.086793
      36 C28         15.3608    15.8104    28.3712 ca            1 HST       -0.078493
      37 C29         13.4193    18.0885    30.2097 ca            1 HST       -0.086793
      38 C30         15.0502    16.0512    29.8675 c3            1 HST        0.028407
      39 C31         13.6210    16.6573    30.0439 ca            1 HST       -0.078493
      40 C32         14.3533    15.7720    23.5623 c3            1 HST        0.385107
      41 C33         12.7748    21.0105    30.9221 c3            1 HST       -0.059693
      42 C34         13.1921    20.7022    32.3879 c3            1 HST       -0.187693
      43 C35         14.3132    21.6467    32.8680 c             1 HST        0.906807
      44 O9          15.0462    21.2261    33.7146 o             1 HST       -0.865693
      45 C36         13.6665    22.8145    26.2422 c3            1 HST       -0.059693
      46 C37         14.5809    23.3526    25.1624 c3            1 HST       -0.187693
      47 C38         15.8077    24.0844    25.7460 c             1 HST        0.906807
      48 O10         16.1633    25.2437    25.4782 o             1 HST       -0.865693
      49 C39         17.2917    18.8491    25.9498 c3            1 HST       -0.059693
      50 C40         18.5652    18.1718    26.4900 c3            1 HST       -0.187693
      51 C41         19.2304    17.1384    25.5440 c             1 HST        0.906807
      52 O11         19.3869    16.0327    26.0384 o             1 HST       -0.865693
      53 C42         16.0457    16.9195    30.6125 c3            1 HST       -0.059693
      54 C43         17.4079    16.2077    30.9747 c3            1 HST       -0.187693
      55 C44         18.3248    16.9677    31.9157 c             1 HST        0.906807
      56 O12         18.4499    18.1565    31.7578 o             1 HST       -0.865693
      57 C45          9.1715    19.4653    23.3346 ca            1 HST       -0.077493
      58 C46          6.9907    18.4758    21.8152 ca            1 HST       -0.142593
      59 C47          7.8550    19.2266    23.9784 ca            1 HST       -0.129193
      60 C48          9.3031    19.0758    21.9885 ca            1 HST       -0.129193
      61 C49          8.2366    18.6026    21.2261 ca            1 HST        0.108807
      62 C50          6.8151    18.7335    23.1666 ca            1 HST        0.108807
      63 C51         13.9327    14.8342    22.5321 ca            1 HST       -0.077493
      64 C52         12.9531    13.0100    20.5946 ca            1 HST       -0.142593
      65 C53         14.1926    13.4580    22.6385 ca            1 HST       -0.129193
      66 C54         12.9955    15.2619    21.5263 ca            1 HST       -0.129193
      67 C55         12.5609    14.3688    20.5579 ca            1 HST        0.108807
      68 C56         13.5809    12.5500    21.7494 ca            1 HST        0.108807
      69 C57         12.0309    12.7129    28.3982 ca            1 HST       -0.077493
      70 C58         10.3644    10.5215    27.6020 ca            1 HST       -0.142593
      71 C59         10.7675    12.5270    28.9346 ca            1 HST       -0.129193
      72 C60         12.4538    11.7557    27.4366 ca            1 HST       -0.129193
      73 C61         11.6651    10.6541    27.0819 ca            1 HST        0.108807
      74 C62          9.8412    11.4877    28.4852 ca            1 HST        0.108807
      75 C63          7.6833    17.4430    29.6544 ca            1 HST       -0.077493
      76 C64          5.1113    16.2810    30.0058 ca            1 HST       -0.142593
      77 C65          7.5194    16.3201    30.4399 ca            1 HST       -0.129193
      78 C66          6.5872    17.9391    28.9772 ca            1 HST       -0.129193
      79 C67          5.2937    17.3376    29.1326 ca            1 HST        0.108807
      80 C68          6.2499    15.7403    30.6283 ca            1 HST        0.108807
      81 O13         11.7500    14.8498    19.5017 os            1 HST       -0.300893
      82 O14         11.9758     9.8070    26.0616 os            1 HST       -0.300893
      83 O15          8.5229    11.3737    28.9208 os            1 HST       -0.300893
      84 O16          8.4600    18.1586    19.9552 os            1 HST       -0.300893
      85 O17          5.6695    18.2989    23.7430 os            1 HST       -0.300893
      86 O18          6.0732    14.6103    31.3729 os            1 HST       -0.300893
      87 O19          4.2428    17.7392    28.4237 os            1 HST       -0.300893
      88 C69         13.0911     9.8861    25.2010 ca            1 HST        0.065707
      89 C70         15.2571     9.9905    23.4727 ca            1 HST       -0.108993
      90 C71         13.0056    10.6184    24.0277 ca            1 HST       -0.176193
      91 C72         14.3089     9.2879    25.5959 ca            1 HST       -0.108993
      92 C73         15.4189     9.3655    24.7447 ca            1 HST       -0.085593
      93 C74         14.0516    10.6182    23.1196 ca            1 HST        0.065707
      94 O20         13.8644    11.1780    21.8564 os            1 HST       -0.300893
      95 C75          9.7468    17.7562    19.5077 ca            1 HST        0.065707
      96 C76         12.2807    16.9658    18.7623 ca            1 HST       -0.108993
      97 C77         10.6230    18.6711    18.8333 ca            1 HST       -0.108993
      98 C78         10.1356    16.4431    19.7707 ca            1 HST       -0.176193
      99 C79         11.4002    16.0828    19.3331 ca            1 HST        0.065707
     100 C80         11.9171    18.3279    18.5486 ca            1 HST       -0.085593
     101 C81          8.0949    11.8246    30.1252 ca            1 HST        0.065707
     102 C82          6.7776    12.5163    32.4339 ca            1 HST       -0.108993
     103 C83          8.0188    10.8982    31.2074 ca            1 HST       -0.108993
     104 C84          7.5658    13.1196    30.1608 ca            1 HST       -0.176193
     105 C85          6.8725    13.4912    31.3693 ca            1 HST        0.065707
     106 C86          7.3627    11.2498    32.3917 ca            1 HST       -0.085593
     107 C87          7.2793    10.2347    33.4348 c             1 HST        0.919807
     108 O21          8.0166     9.2515    33.3772 o             1 HST       -0.835293
     109 C88          4.1554    22.1066    26.2550 c             1 HST        0.919807
     110 O22          4.1234    22.7960    25.2283 o             1 HST       -0.835293
     111 C89         12.8357    19.3106    18.0078 c             1 HST        0.919807
     112 O23         13.8997    19.0007    17.4004 o             1 HST       -0.835293
     113 O24         14.4742    22.7996    32.5066 o             1 HST       -0.865693
     114 O25         18.7979    16.3551    32.8372 o             1 HST       -0.865693
     115 O26         19.5494    17.4047    24.4227 o             1 HST       -0.865693
     116 C90         16.6779     8.8032    25.3074 c             1 HST        0.919807
     117 O27         17.7498     8.6768    24.6899 o             1 HST       -0.835293
     118 O28          3.9935    22.6457    27.3371 o             1 HST       -0.835293
     119 O29          6.6304    10.4448    34.4323 o             1 HST       -0.835293
     120 O30         16.6513     8.1444    26.2762 o             1 HST       -0.835293
     121 O31         12.5034    20.5026    17.9576 o             1 HST       -0.835293
     122 O32         16.4252    23.6453    26.7078 o             1 HST       -0.865693
     123 C91          5.0886    18.7217    24.8975 ca            1 HST        0.065707
     124 C92          4.0994    19.8386    27.2909 ca            1 HST       -0.108993
     125 C93          4.9799    17.9049    26.0738 ca            1 HST       -0.176193
     126 C94          4.7179    20.0572    24.9396 ca            1 HST       -0.108993
     127 C95          4.3250    20.6600    26.1604 ca            1 HST       -0.085593
     128 C96          4.3772    18.4685    27.2448 ca            1 HST        0.065707
     129 H1          14.8571    19.9204    26.3317 ha            1 HST        0.171207
     130 H2          12.6726    18.4587    22.1086 ha            1 HST        0.154707
     131 H3          12.2084    22.2787    24.8915 hc            1 HST        0.058007
     132 H4          10.4937    18.9575    24.7681 h2            1 HST        0.068607
     133 H5          13.1898    20.9496    28.3025 ha            1 HST        0.171207
     134 H6           8.4868    20.3633    26.9515 ha            1 HST        0.154707
     135 H7          10.9661    20.1851    31.1799 hc            1 HST        0.058007
     136 H8           9.6671    17.6953    28.7358 h2            1 HST        0.068607
     137 H9          16.8405    17.3344    24.4803 hc            1 HST        0.058007
     138 H10         10.5356    15.4771    30.8076 ha            1 HST        0.154707
     139 H11         14.6845    13.4646    25.8959 ha            1 HST        0.154707
     140 H12         12.5432    14.7238    27.9358 h2            1 HST        0.068607
     141 H13         15.8688    17.9064    27.9443 ha            1 HST        0.171207
     142 H14         14.2400    18.7877    30.0799 ha            1 HST        0.171207
     143 H15         15.0538    15.0870    30.3905 hc            1 HST        0.058007
     144 H16         13.5068    15.9241    24.2418 h2            1 HST        0.068607
     145 H17         13.6470    20.8939    30.2672 hc            1 HST        0.058607
     146 H18         12.2809    21.9887    30.8753 hc            1 HST        0.058607
     147 H19         12.3144    20.7428    33.0446 hc            1 HST        0.019207
     148 H20         13.5545    19.6741    32.5103 hc            1 HST        0.019207
     149 H21         14.3609    22.3734    26.9677 hc            1 HST        0.058607
     150 H22         13.1278    23.6243    26.7493 hc            1 HST        0.058607
     151 H23         15.0275    22.5250    24.5978 hc            1 HST        0.019207
     152 H24         14.1198    23.9698    24.3816 hc            1 HST        0.019207
     153 H25         17.5130    19.5954    25.1770 hc            1 HST        0.058607
     154 H26         16.8234    19.4914    26.7056 hc            1 HST        0.058607
     155 H27         19.3735    18.9121    26.5321 hc            1 HST        0.019207
     156 H28         18.3807    17.6893    27.4577 hc            1 HST        0.019207
     157 H29         16.3263    17.8363    30.0795 hc            1 HST        0.058607
     158 H30         15.5605    17.2214    31.5488 hc            1 HST        0.058607
     159 H31         17.1507    15.1899    31.2927 hc            1 HST        0.019207
     160 H32         17.9813    16.0413    30.0545 hc            1 HST        0.019207
     161 H33          6.2047    17.9052    21.3293 ha            1 HST        0.159907
     162 H34          7.7201    19.3967    25.0425 ha            1 HST        0.151007
     163 H35         10.3291    19.1447    21.6395 ha            1 HST        0.151007
     164 H36         12.5965    12.3491    19.8100 ha            1 HST        0.159907
     165 H37         14.6817    13.0542    23.5200 ha            1 HST        0.151007
     166 H38         12.6761    16.2996    21.5490 ha            1 HST        0.151007
     167 H39          9.7962     9.6495    27.2919 ha            1 HST        0.159907
     168 H40         10.4130    13.3311    29.5726 ha            1 HST        0.151007
     169 H41         13.4616    11.9062    27.0608 ha            1 HST        0.151007
     170 H42          4.1397    15.8259    30.1741 ha            1 HST        0.159907
     171 H43          8.4105    15.9460    30.9351 ha            1 HST        0.151007
     172 H44          6.7734    18.8092    28.3545 ha            1 HST        0.151007
     173 H45         15.9666     9.7798    22.6780 ha            1 HST        0.165507
     174 H46         12.0349    11.0566    23.8149 ha            1 HST        0.130107
     175 H47         14.2274     8.7439    26.5323 ha            1 HST        0.165507
     176 H48         13.2724    16.5954    18.5199 ha            1 HST        0.165507
     177 H49         10.4292    19.7293    18.6845 ha            1 HST        0.165507
     178 H50          9.5810    15.6870    20.3187 ha            1 HST        0.130107
     179 H51          6.1747    12.8045    33.2900 ha            1 HST        0.165507
     180 H52          8.4467     9.9142    31.0398 ha            1 HST        0.165507
     181 H53          7.5122    13.7242    29.2602 ha            1 HST        0.130107
     182 H54          3.7141    20.3185    28.1857 ha            1 HST        0.165507
     183 H55          5.2678    16.8579    26.0900 ha            1 HST        0.130107
     184 H56          4.9219    20.6133    24.0293 ha            1 HST        0.165507
@<TRIPOS>BOND
       1      126      127 1
       2      125      128 1
       3      124      127 1
       4      124      128 1
       5      123      125 1
       6      123      126 1
       7      116      117 1
       8      116      120 1
       9      111      112 1
      10      111      121 1
      11      109      110 1
      12      109      118 1
      13      109      127 1
      14      107      108 1
      15      107      119 1
      16      106      107 1
      17      104      105 1
      18      103      106 1
      19      102      105 1
      20      102      106 1
      21      101      103 1
      22      101      104 1
      23      100      111 1
      24       98       99 1
      25       97      100 1
      26       96       99 1
      27       96      100 1
      28       95       97 1
      29       95       98 1
      30       93       94 1
      31       92      116 1
      32       91       92 1
      33       90       93 1
      34       89       92 1
      35       89       93 1
      36       88       90 1
      37       88       91 1
      38       87      128 1
      39       86      105 1
      40       85      123 1
      41       84       95 1
      42       83      101 1
      43       82       88 1
      44       81       99 1
      45       80       86 1
      46       79       87 1
      47       78       79 1
      48       77       80 1
      49       76       79 1
      50       76       80 1
      51       75       77 1
      52       75       78 1
      53       74       83 1
      54       73       82 1
      55       72       73 1
      56       71       74 1
      57       70       73 1
      58       70       74 1
      59       69       71 1
      60       69       72 1
      61       68       94 1
      62       67       81 1
      63       66       67 1
      64       65       68 1
      65       64       67 1
      66       64       68 1
      67       63       65 1
      68       63       66 1
      69       62       85 1
      70       61       84 1
      71       60       61 1
      72       59       62 1
      73       58       61 1
      74       58       62 1
      75       57       59 1
      76       57       60 1
      77       55       56 1
      78       55      114 1
      79       54       55 1
      80       53       54 1
      81       51       52 1
      82       51      115 1
      83       50       51 1
      84       49       50 1
      85       47       48 1
      86       47      122 1
      87       46       47 1
      88       45       46 1
      89       43       44 1
      90       43      113 1
      91       42       43 1
      92       41       42 1
      93       40       63 1
      94       38       39 1
      95       38       53 1
      96       37       39 1
      97       36       38 1
      98       35       36 1
      99       34       69 1
     100       33       34 1
     101       32       34 1
     102       31       33 1
     103       31       36 1
     104       30       31 1
     105       29       32 1
     106       29       39 1
     107       28       29 1
     108       27       30 1
     109       26       27 1
     110       26       40 1
     111       25       27 1
     112       25       35 1
     113       24       25 1
     114       24       49 1
     115       23       40 1
     116       21       22 1
     117       21       75 1
     118       20       22 1
     119       20       28 1
     120       19       20 1
     121       19       37 1
     122       18       19 1
     123       18       41 1
     124       17       21 1
     125       16       17 1
     126       15       16 1
     127       15       18 1
     128       14       16 1
     129       13       15 1
     130       12       13 1
     131       11       12 1
     132       11       14 1
     133       10       11 1
     134        9       10 1
     135        9       57 1
     136        8       12 1
     137        8       45 1
     138        7        9 1
     139        6        8 1
     140        4        5 1
     141        4       23 1
     142        3        6 1
     143        2        5 1
     144        2        6 1
     145        2        7 1
     146        1        3 1
     147        1        4 1
     148        1       24 1
     149      126      184 1
     150      125      183 1
     151      124      182 1
     152      104      181 1
     153      103      180 1
     154      102      179 1
     155       98      178 1
     156       97      177 1
     157       96      176 1
     158       91      175 1
     159       90      174 1
     160       89      173 1
     161       78      172 1
     162       77      171 1
     163       76      170 1
     164       72      169 1
     165       71      168 1
     166       70      167 1
     167       66      166 1
     168       65      165 1
     169       64      164 1
     170       60      163 1
     171       59      162 1
     172       58      161 1
     173       54      159 1
     174       54      160 1
     175       53      157 1
     176       53      158 1
     177       50      155 1
     178       50      156 1
     179       49      153 1
     180       49      154 1
     181       46      151 1
     182       46      152 1
     183       45      149 1
     184       45      150 1
     185       42      147 1
     186       42      148 1
     187       41      145 1
     188       41      146 1
     189       40      144 1
     190       38      143 1
     191       37      142 1
     192       35      141 1
     193       34      140 1
     194       30      139 1
     195       28      138 1
     196       24      137 1
     197       21      136 1
     198       18      135 1
     199       14      134 1
     200       13      133 1
     201        9      132 1
     202        8      131 1
     203        5      130 1
     204        3      129 1
@<TRIPOS>SUBSTRUCTURE
       1 HST             1 RESIDUE    0 **** ROOT      0
