@<TRIPOS>MOLECULE
HST
184 204 1 0 1
SMALL
USER_CHARGES
@<TRIPOS>CRYSIN
   42.8671    43.0786    43.3921    90.0000    90.0000    90.0000  1  1
@<TRIPOS>ATOM
       1 C1          23.4629    25.7594    16.0890 ca            1 HST       -0.079381
       2 C2          21.7150    27.9462    15.5002 ca            1 HST        0.094407
       3 C3          22.1972    25.9211    16.7676 ca            1 HST       -0.086793
       4 C4          23.8490    26.7775    15.2276 ca            1 HST        0.094407
       5 C5          23.0106    27.8269    14.9411 ca            1 HST       -0.145993
       6 C6          21.2655    26.9943    16.4267 ca            1 HST       -0.078493
       7 O1          20.8748    28.9380    15.0064 os            1 HST       -0.354893
       8 C7          19.7721    27.0265    16.9159 c3            1 HST        0.028407
       9 C8          20.0434    28.6368    13.9450 c3            1 HST        0.385107
      10 O2          18.7660    28.4930    14.6802 os            1 HST       -0.354893
      11 C9          18.3966    27.2091    14.7256 ca            1 HST        0.094407
      12 C10         18.8875    26.4829    15.7705 ca            1 HST       -0.078493
      13 C11         18.5748    25.0717    15.7576 ca            1 HST       -0.086793
      14 C12         17.4763    26.7095    13.7734 ca            1 HST       -0.145993
      15 C13         17.7064    24.5120    14.7456 ca            1 HST       -0.078493
      16 C14         17.2149    25.3340    13.6976 ca            1 HST        0.094407
      17 O3          16.5325    24.8778    12.6273 os            1 HST       -0.354893
      18 C15         17.3587    23.0369    14.8609 c3            1 HST        0.028407
      19 C16         18.3389    22.2173    14.0060 ca            1 HST       -0.078493
      20 C17         18.0669    22.1446    12.6066 ca            1 HST        0.094407
      21 C18         17.2644    24.1384    11.6364 c3            1 HST        0.385107
      22 O4          16.9929    22.7305    11.9880 os            1 HST       -0.354893
      23 O5          25.0225    26.7473    14.5793 os            1 HST       -0.354893
      24 C19         24.4267    24.5241    16.1838 c3            1 HST        0.028407
      25 C20         24.2007    23.5728    14.9851 ca            1 HST       -0.078493
      26 O6          25.8103    24.7490    13.5571 os            1 HST       -0.354893
      27 C21         24.9011    23.7072    13.7666 ca            1 HST        0.094407
      28 C22         19.0389    21.6387    11.7783 ca            1 HST       -0.145993
      29 C23         20.2653    21.0652    12.3491 ca            1 HST        0.094407
      30 C24         24.5407    22.9160    12.7251 ca            1 HST       -0.145993
      31 C25         23.6552    21.8765    12.8313 ca            1 HST        0.094407
      32 O7          21.1137    20.5839    11.4070 os            1 HST       -0.354893
      33 O8          23.3207    21.2149    11.7225 os            1 HST       -0.354893
      34 C26         22.1044    21.5081    10.9461 c3            1 HST        0.385107
      35 C27         23.2365    22.5537    15.1194 ca            1 HST       -0.086793
      36 C28         22.9165    21.7286    14.0507 ca            1 HST       -0.078493
      37 C29         19.6064    21.6855    14.5004 ca            1 HST       -0.086793
      38 C30         21.9134    20.6189    14.1259 c3            1 HST        0.028407
      39 C31         20.5565    21.0539    13.7130 ca            1 HST       -0.078493
      40 C32         25.2080    26.0061    13.3499 c3            1 HST        0.385107
      41 C33         17.2183    22.5445    16.3244 c3            1 HST       -0.059693
      42 C34         16.4177    21.2246    16.4687 c3            1 HST       -0.187693
      43 C35         15.9907    21.1066    17.9322 c             1 HST        0.906807
      44 O9          16.7079    20.5463    18.6823 o             1 HST       -0.865693
      45 C36         19.5171    26.3351    18.3189 c3            1 HST       -0.059693
      46 C37         18.0709    26.5662    18.7131 c3            1 HST       -0.187693
      47 C38         17.7666    25.9707    20.0711 c             1 HST        0.906807
      48 O10         18.2154    26.4102    21.1132 o             1 HST       -0.865693
      49 C39         24.4963    23.7756    17.5455 c3            1 HST       -0.059693
      50 C40         25.7304    22.7493    17.6280 c3            1 HST       -0.187693
      51 C41         25.7817    21.9641    18.9156 c             1 HST        0.906807
      52 O11         25.5750    20.7601    18.9509 o             1 HST       -0.865693
      53 C42         21.8059    19.9608    15.5494 c3            1 HST       -0.059693
      54 C43         21.2681    18.5461    15.5199 c3            1 HST       -0.187693
      55 C44         21.7436    17.7088    16.7366 c             1 HST        0.906807
      56 O12         22.2781    18.1838    17.7151 o             1 HST       -0.865693
      57 C45         19.9242    29.8164    12.9585 ca            1 HST       -0.077493
      58 C46         19.7914    31.9071    11.0175 ca            1 HST       -0.142593
      59 C47         18.8966    29.8731    11.9485 ca            1 HST       -0.129193
      60 C48         20.9086    30.7687    12.8618 ca            1 HST       -0.129193
      61 C49         20.9059    31.7748    11.8365 ca            1 HST        0.108807
      62 C50         18.7751    30.9141    11.0249 ca            1 HST        0.108807
      63 C51         25.8360    26.7828    12.2068 ca            1 HST       -0.077493
      64 C52         26.5428    28.1344     9.8019 ca            1 HST       -0.142593
      65 C53         26.3282    26.0954    11.0603 ca            1 HST       -0.129193
      66 C54         25.6624    28.2013    12.0672 ca            1 HST       -0.129193
      67 C55         26.0892    28.9166    10.8713 ca            1 HST        0.108807
      68 C56         26.7271    26.7176     9.8458 ca            1 HST        0.108807
      69 C57         22.3328    21.3110     9.4447 ca            1 HST       -0.077493
      70 C58         22.6219    21.2242     6.6254 ca            1 HST       -0.142593
      71 C59         21.4690    20.5106     8.6819 ca            1 HST       -0.129193
      72 C60         23.4182    22.0128     8.7888 ca            1 HST       -0.129193
      73 C61         23.5529    21.9659     7.3960 ca            1 HST        0.108807
      74 C62         21.6228    20.5243     7.2973 ca            1 HST        0.108807
      75 C63         16.6899    24.4704    10.2320 ca            1 HST       -0.077493
      76 C64         16.1339    25.2935     7.6851 ca            1 HST       -0.142593
      77 C65         16.9616    23.5873     9.1908 ca            1 HST       -0.129193
      78 C66         16.1326    25.7199    10.0101 ca            1 HST       -0.129193
      79 C67         15.7884    26.1437     8.7220 ca            1 HST        0.108807
      80 C68         16.7519    24.0636     7.8811 ca            1 HST        0.108807
      81 O13         25.9433    30.2779    10.6351 os            1 HST       -0.300893
      82 O14         24.5857    22.5726     6.7775 os            1 HST       -0.300893
      83 O15         20.5183    19.8973     6.6037 os            1 HST       -0.300893
      84 O16         21.9009    32.7234    11.7330 os            1 HST       -0.300893
      85 O17         17.7117    31.0481    10.1920 os            1 HST       -0.300893
      86 O18         17.1608    23.3122     6.8479 os            1 HST       -0.300893
      87 O19         15.2514    27.3570     8.4348 os            1 HST       -0.300893
      88 C69         25.7039    22.9754     7.4775 ca            1 HST        0.065707
      89 C70         27.9100    23.7798     9.0085 ca            1 HST       -0.108993
      90 C71         25.8512    24.3464     7.7734 ca            1 HST       -0.176193
      91 C72         26.5471    21.9971     8.0225 ca            1 HST       -0.108993
      92 C73         27.6917    22.4241     8.7372 ca            1 HST       -0.085593
      93 C74         26.9811    24.7239     8.5208 ca            1 HST        0.065707
      94 O20         27.1615    26.0415     8.7385 os            1 HST       -0.300893
      95 C75         23.2049    32.3945    12.0707 ca            1 HST        0.065707
      96 C76         25.9050    31.7246    12.6049 ca            1 HST       -0.108993
      97 C77         23.8600    32.9267    13.2034 ca            1 HST       -0.108993
      98 C78         23.9039    31.4362    11.2753 ca            1 HST       -0.176193
      99 C79         25.2149    31.0566    11.5345 ca            1 HST        0.065707
     100 C80         25.2097    32.6606    13.4946 ca            1 HST       -0.085593
     101 C81         19.2322    20.2745     6.7391 ca            1 HST        0.065707
     102 C82         16.5920    21.0615     6.7071 ca            1 HST       -0.108993
     103 C83         18.2694    19.3513     6.7034 ca            1 HST       -0.108993
     104 C84         18.8876    21.6730     6.7097 ca            1 HST       -0.176193
     105 C85         17.5277    22.0584     6.7691 ca            1 HST        0.065707
     106 C86         16.9162    19.6837     6.6837 ca            1 HST       -0.085593
     107 C87         15.8269    18.6175     6.6787 c             1 HST        0.919807
     108 O21         16.0579    17.5232     7.1005 o             1 HST       -0.835293
     109 C88         13.1416    30.1140    11.8394 c             1 HST        0.919807
     110 O22         13.3116    30.8883    12.7545 o             1 HST       -0.835293
     111 C89         25.8001    33.2811    14.7751 c             1 HST        0.919807
     112 O23         26.9479    32.9460    15.0747 o             1 HST       -0.835293
     113 O24         15.0706    21.7430    18.3714 o             1 HST       -0.865693
     114 O25         21.6361    16.4469    16.7720 o             1 HST       -0.865693
     115 O26         25.7356    22.5453    20.0045 o             1 HST       -0.865693
     116 C90         28.6659    21.3966     9.3081 c             1 HST        0.919807
     117 O27         29.6063    21.9063     9.9073 o             1 HST       -0.835293
     118 O28         12.0709    29.6402    11.5397 o             1 HST       -0.835293
     119 O29         14.6901    18.8908     6.2426 o             1 HST       -0.835293
     120 O30         28.5407    20.2154     9.0384 o             1 HST       -0.835293
     121 O31         25.0827    33.9893    15.5175 o             1 HST       -0.835293
     122 O32         17.0170    25.0061    20.0093 o             1 HST       -0.865693
     123 C91         16.5924    30.2992    10.0999 ca            1 HST        0.065707
     124 C92         14.2450    28.7689     9.9589 ca            1 HST       -0.108993
     125 C93         16.6064    29.1427     9.3613 ca            1 HST       -0.176193
     126 C94         15.5316    30.6570    10.9979 ca            1 HST       -0.108993
     127 C95         14.3581    29.8080    10.9364 ca            1 HST       -0.085593
     128 C96         15.3742    28.4095     9.2087 ca            1 HST        0.065707
     129 H1          21.8256    25.1235    17.4040 ha            1 HST        0.171207
     130 H2          23.4202    28.5827    14.2774 ha            1 HST        0.154707
     131 H3          19.4767    28.0624    17.1227 hc            1 HST        0.058007
     132 H4          20.3265    27.7406    13.3811 h2            1 HST        0.068607
     133 H5          19.0615    24.4360    16.4914 ha            1 HST        0.171207
     134 H6          17.0649    27.3875    13.0315 ha            1 HST        0.154707
     135 H7          16.3703    22.9720    14.3896 hc            1 HST        0.058007
     136 H8          18.3290    24.3963    11.6742 h2            1 HST        0.068607
     137 H9          25.4460    24.9108    16.0627 hc            1 HST        0.058007
     138 H10         18.8999    21.6919    10.7025 ha            1 HST        0.154707
     139 H11         25.0213    23.0660    11.7628 ha            1 HST        0.154707
     140 H12         21.7310    22.5129    11.1750 h2            1 HST        0.068607
     141 H13         22.6180    22.4736    16.0085 ha            1 HST        0.171207
     142 H14         19.9110    21.7462    15.5410 ha            1 HST        0.171207
     143 H15         22.1183    19.7945    13.4319 hc            1 HST        0.058007
     144 H16         24.1376    25.8678    13.1586 h2            1 HST        0.068607
     145 H17         18.1373    22.4383    16.9138 hc            1 HST        0.058607
     146 H18         16.5618    23.2755    16.8122 hc            1 HST        0.058607
     147 H19         15.5019    21.1510    15.8693 hc            1 HST        0.019207
     148 H20         17.0208    20.3429    16.2197 hc            1 HST        0.019207
     149 H21         20.1356    26.7692    19.1140 hc            1 HST        0.058607
     150 H22         19.7433    25.2647    18.3974 hc            1 HST        0.058607
     151 H23         17.8959    27.6468    18.7824 hc            1 HST        0.019207
     152 H24         17.4409    26.1059    17.9420 hc            1 HST        0.019207
     153 H25         24.5324    24.5164    18.3536 hc            1 HST        0.058607
     154 H26         23.5889    23.2259    17.8244 hc            1 HST        0.058607
     155 H27         25.7535    21.9896    16.8372 hc            1 HST        0.019207
     156 H28         26.6116    23.3996    17.5657 hc            1 HST        0.019207
     157 H29         22.8611    19.9761    15.8487 hc            1 HST        0.058607
     158 H30         21.4062    20.6533    16.3002 hc            1 HST        0.058607
     159 H31         20.1768    18.6474    15.5631 hc            1 HST        0.019207
     160 H32         21.5295    18.0561    14.5740 hc            1 HST        0.019207
     161 H33         19.6794    32.7283    10.3158 ha            1 HST        0.159907
     162 H34         18.1423    29.0929    11.9911 ha            1 HST        0.151007
     163 H35         21.7757    30.7049    13.5126 ha            1 HST        0.151007
     164 H36         26.8204    28.5591     8.8417 ha            1 HST        0.159907
     165 H37         26.4219    25.0139    11.0915 ha            1 HST        0.151007
     166 H38         25.1147    28.7790    12.8059 ha            1 HST        0.151007
     167 H39         22.6994    21.1865     5.5428 ha            1 HST        0.159907
     168 H40         20.6343    20.0187     9.1725 ha            1 HST        0.151007
     169 H41         24.1334    22.6019     9.3553 ha            1 HST        0.151007
     170 H42         15.8707    25.5665     6.6674 ha            1 HST        0.159907
     171 H43         17.4130    22.6283     9.4273 ha            1 HST        0.151007
     172 H44         16.0126    26.4016    10.8469 ha            1 HST        0.151007
     173 H45         28.7300    24.0841     9.6522 ha            1 HST        0.165507
     174 H46         25.1164    25.0540     7.4009 ha            1 HST        0.130107
     175 H47         26.4324    20.9378     7.8124 ha            1 HST        0.165507
     176 H48         26.9383    31.5821    12.9070 ha            1 HST        0.165507
     177 H49         23.2826    33.6197    13.8082 ha            1 HST        0.165507
     178 H50         23.4606    30.9975    10.3862 ha            1 HST        0.130107
     179 H51         15.5526    21.3764     6.7137 ha            1 HST        0.165507
     180 H52         18.5680    18.3086     6.7590 ha            1 HST        0.165507
     181 H53         19.7000    22.3935     6.7319 ha            1 HST        0.130107
     182 H54         13.4540    28.0283     9.8865 ha            1 HST        0.165507
     183 H55         17.5049    28.8111     8.8493 ha            1 HST        0.130107
     184 H56         15.6388    31.5564    11.5971 ha            1 HST        0.165507
@<TRIPOS>BOND
       1      126      127 1
       2      125      128 1
       3      124      127 1
       4      124      128 1
       5      123      125 1
       6      123      126 1
       7      116      117 1
       8      116      120 1
       9      111      112 1
      10      111      121 1
      11      109      110 1
      12      109      118 1
      13      109      127 1
      14      107      108 1
      15      107      119 1
      16      106      107 1
      17      104      105 1
      18      103      106 1
      19      102      105 1
      20      102      106 1
      21      101      103 1
      22      101      104 1
      23      100      111 1
      24       98       99 1
      25       97      100 1
      26       96       99 1
      27       96      100 1
      28       95       97 1
      29       95       98 1
      30       93       94 1
      31       92      116 1
      32       91       92 1
      33       90       93 1
      34       89       92 1
      35       89       93 1
      36       88       90 1
      37       88       91 1
      38       87      128 1
      39       86      105 1
      40       85      123 1
      41       84       95 1
      42       83      101 1
      43       82       88 1
      44       81       99 1
      45       80       86 1
      46       79       87 1
      47       78       79 1
      48       77       80 1
      49       76       79 1
      50       76       80 1
      51       75       77 1
      52       75       78 1
      53       74       83 1
      54       73       82 1
      55       72       73 1
      56       71       74 1
      57       70       73 1
      58       70       74 1
      59       69       71 1
      60       69       72 1
      61       68       94 1
      62       67       81 1
      63       66       67 1
      64       65       68 1
      65       64       67 1
      66       64       68 1
      67       63       65 1
      68       63       66 1
      69       62       85 1
      70       61       84 1
      71       60       61 1
      72       59       62 1
      73       58       61 1
      74       58       62 1
      75       57       59 1
      76       57       60 1
      77       55       56 1
      78       55      114 1
      79       54       55 1
      80       53       54 1
      81       51       52 1
      82       51      115 1
      83       50       51 1
      84       49       50 1
      85       47       48 1
      86       47      122 1
      87       46       47 1
      88       45       46 1
      89       43       44 1
      90       43      113 1
      91       42       43 1
      92       41       42 1
      93       40       63 1
      94       38       39 1
      95       38       53 1
      96       37       39 1
      97       36       38 1
      98       35       36 1
      99       34       69 1
     100       33       34 1
     101       32       34 1
     102       31       33 1
     103       31       36 1
     104       30       31 1
     105       29       32 1
     106       29       39 1
     107       28       29 1
     108       27       30 1
     109       26       27 1
     110       26       40 1
     111       25       27 1
     112       25       35 1
     113       24       25 1
     114       24       49 1
     115       23       40 1
     116       21       22 1
     117       21       75 1
     118       20       22 1
     119       20       28 1
     120       19       20 1
     121       19       37 1
     122       18       19 1
     123       18       41 1
     124       17       21 1
     125       16       17 1
     126       15       16 1
     127       15       18 1
     128       14       16 1
     129       13       15 1
     130       12       13 1
     131       11       12 1
     132       11       14 1
     133       10       11 1
     134        9       10 1
     135        9       57 1
     136        8       12 1
     137        8       45 1
     138        7        9 1
     139        6        8 1
     140        4        5 1
     141        4       23 1
     142        3        6 1
     143        2        5 1
     144        2        6 1
     145        2        7 1
     146        1        3 1
     147        1        4 1
     148        1       24 1
     149      126      184 1
     150      125      183 1
     151      124      182 1
     152      104      181 1
     153      103      180 1
     154      102      179 1
     155       98      178 1
     156       97      177 1
     157       96      176 1
     158       91      175 1
     159       90      174 1
     160       89      173 1
     161       78      172 1
     162       77      171 1
     163       76      170 1
     164       72      169 1
     165       71      168 1
     166       70      167 1
     167       66      166 1
     168       65      165 1
     169       64      164 1
     170       60      163 1
     171       59      162 1
     172       58      161 1
     173       54      159 1
     174       54      160 1
     175       53      157 1
     176       53      158 1
     177       50      155 1
     178       50      156 1
     179       49      153 1
     180       49      154 1
     181       46      151 1
     182       46      152 1
     183       45      149 1
     184       45      150 1
     185       42      147 1
     186       42      148 1
     187       41      145 1
     188       41      146 1
     189       40      144 1
     190       38      143 1
     191       37      142 1
     192       35      141 1
     193       34      140 1
     194       30      139 1
     195       28      138 1
     196       24      137 1
     197       21      136 1
     198       18      135 1
     199       14      134 1
     200       13      133 1
     201        9      132 1
     202        8      131 1
     203        5      130 1
     204        3      129 1
@<TRIPOS>SUBSTRUCTURE
       1 HST             1 RESIDUE    0 **** ROOT      0
