@<TRIPOS>MOLECULE
GST
49 52 1 0 1
SMALL
USER_CHARGES
@<TRIPOS>CRYSIN
   40.1289    40.4946    40.3898    90.0000    90.0000    90.0000  1  1
@<TRIPOS>ATOM
       1 C1          24.9291    13.5347    28.3830 ca            1 GST       -0.117588
       2 C2          25.6908    14.2021    29.3650 ca            1 GST       -0.155594
       3 C3          21.5525    15.1362    26.6198 ca            1 GST       -0.240594
       4 C4          23.9613    15.9645    29.4744 ca            1 GST       -0.222794
       5 C5          22.1092    13.8628    26.2876 ca            1 GST        0.393806
       6 C6          23.2217    15.3424    28.3823 ca            1 GST       -0.089794
       7 C7          22.0615    15.9195    27.7206 ca            1 GST       -0.134794
       8 C8          23.7101    14.0753    27.9344 ca            1 GST        0.364606
       9 C9          25.1675    15.3748    29.9521 ca            1 GST        0.167506
      10 C10         17.0839    16.0548    26.4574 c2            1 GST       -0.158994
      11 C11         16.6563    16.9773    27.2998 c2            1 GST       -0.212394
      12 C12         18.2435    18.1867    30.7342 c3            1 GST       -0.098594
      13 C13         19.0388    18.5531    28.3786 c3            1 GST       -0.088494
      14 C14         19.4022    17.1505    30.7423 c3            1 GST        0.114206
      15 C15         18.0379    15.8149    29.2305 c3            1 GST        0.115206
      16 C16         17.0422    16.9921    28.8147 c3            1 GST       -0.039494
      17 C17         17.7629    18.3168    29.2169 c3            1 GST       -0.071194
      18 C18         19.8660    17.2339    28.2775 c3            1 GST        0.097006
      19 C19         26.9266    17.1068    30.0286 c3            1 GST        0.108506
      20 C20         21.4251    17.3148    28.0946 c3            1 GST        0.186806
      21 N1          23.1824    13.3766    26.9461 nb            1 GST       -0.604294
      22 N2          19.4934    16.3132    29.4156 n4            1 GST       -0.682794
      23 O1          21.6003    18.2514    27.0091 oh            1 GST       -0.571294
      24 O2          25.9092    16.2057    30.6947 os            1 GST       -0.315094
      25 H1          25.3599    12.7055    27.8296 ha            1 GST        0.172306
      26 H2          26.6726    13.7762    29.5492 ha            1 GST        0.166306
      27 H3          20.7301    15.4040    25.9630 ha            1 GST        0.137006
      28 H4          23.5983    16.8956    29.8996 ha            1 GST        0.138606
      29 H5          21.7767    13.2806    25.4294 h4            1 GST        0.043206
      30 H6          16.8067    16.1614    25.4109 ha            1 GST        0.131706
      31 H7          17.5879    15.1255    26.7139 ha            1 GST        0.131706
      32 H8          16.1245    17.8514    26.9299 ha            1 GST        0.131906
      33 H9          17.5005    17.8381    31.4620 hc            1 GST        0.086206
      34 H10         18.5645    19.1182    31.2163 hc            1 GST        0.086206
      35 H11         18.7034    18.8144    27.3675 hc            1 GST        0.091006
      36 H12         19.6190    19.4209    28.7156 hc            1 GST        0.091006
      37 H13         20.3350    17.6935    30.9014 hx            1 GST        0.101606
      38 H14         19.3368    16.4273    31.5566 hx            1 GST        0.101606
      39 H15         17.6424    15.4564    30.1820 hx            1 GST        0.099806
      40 H16         18.0288    15.0256    28.4773 hx            1 GST        0.099806
      41 H17         16.1391    16.9354    29.4347 hc            1 GST        0.088106
      42 H18         17.0661    19.1555    29.0974 hc            1 GST        0.111606
      43 H19         19.4515    16.6674    27.4423 hx            1 GST        0.098506
      44 H20         26.4655    17.9983    29.5861 h1            1 GST        0.055406
      45 H21         27.4383    16.5650    29.2238 h1            1 GST        0.055406
      46 H22         27.6796    17.5379    30.6997 h1            1 GST        0.055406
      47 H23         21.7477    17.6958    29.0713 h1            1 GST        0.095506
      48 H24         20.2008    15.5687    29.4993 hn            1 GST        0.458306
      49 H25         22.5038    18.1084    26.6775 ho            1 GST        0.427906
@<TRIPOS>BOND
       1       20       23 1
       2       19       24 1
       3       18       20 1
       4       18       22 1
       5       16       17 1
       6       15       16 1
       7       15       22 1
       8       14       22 1
       9       13       17 1
      10       13       18 1
      11       12       14 1
      12       12       17 1
      13       11       16 1
      14       10       11 1
      15        9       24 1
      16        8       21 1
      17        7       20 1
      18        6        7 1
      19        6        8 1
      20        5       21 1
      21        4        6 1
      22        4        9 1
      23        3        5 1
      24        3        7 1
      25        2        9 1
      26        1        2 1
      27        1        8 1
      28       23       49 1
      29       22       48 1
      30       20       47 1
      31       19       44 1
      32       19       45 1
      33       19       46 1
      34       18       43 1
      35       17       42 1
      36       16       41 1
      37       15       39 1
      38       15       40 1
      39       14       37 1
      40       14       38 1
      41       13       35 1
      42       13       36 1
      43       12       33 1
      44       12       34 1
      45       11       32 1
      46       10       30 1
      47       10       31 1
      48        5       29 1
      49        4       28 1
      50        3       27 1
      51        2       26 1
      52        1       25 1
@<TRIPOS>SUBSTRUCTURE
       1 GST             1 RESIDUE    0 **** ROOT      0
