@<TRIPOS>MOLECULE
HST
144 168 1 0 1
SMALL
USER_CHARGES
@<TRIPOS>CRYSIN
   40.1289    40.4946    40.3898    90.0000    90.0000    90.0000  1  1
@<TRIPOS>ATOM
       1 O1          19.9713    16.2625    33.7441 o             1 HST       -0.582429
       2 C1          19.2198    17.1693    34.0479 c             1 HST        0.803903
       3 N1          19.5749    18.4823    34.0825 n             1 HST       -0.507797
       4 C2          18.5189    19.3038    34.6475 c3            1 HST        0.235003
       5 C3          20.9776    18.9363    34.1233 c3            1 HST        0.293003
       6 N2          21.4034    19.6752    32.9089 n             1 HST       -0.507797
       7 C4          21.0611    21.0567    32.6754 c3            1 HST        0.235003
       8 C5          22.1570    19.1256    31.8681 c             1 HST        0.803903
       9 O2          22.6452    17.9995    31.9164 o             1 HST       -0.581997
      10 N3          22.3893    20.0432    30.9257 n             1 HST       -0.507797
      11 C6          21.8052    21.3325    31.3306 c3            1 HST        0.235003
      12 C7          23.6492    20.0854    30.0260 c3            1 HST        0.293003
      13 N4          23.3456    20.4269    28.6218 n             1 HST       -0.507797
      14 C8          23.0165    21.7617    28.2282 c3            1 HST        0.235003
      15 C9          23.9482    19.7298    27.5990 c             1 HST        0.803903
      16 O3          24.4040    18.6398    27.6389 o             1 HST       -0.581997
      17 N5          24.0357    20.5083    26.4826 n             1 HST       -0.507797
      18 C10         23.4400    21.7972    26.7337 c3            1 HST        0.235003
      19 C11         24.5317    20.0319    25.1387 c3            1 HST        0.293003
      20 N6          23.4867    19.5096    24.2291 n             1 HST       -0.507797
      21 C12         22.9373    20.3719    23.2698 c3            1 HST        0.235003
      22 C13         23.1614    18.1969    24.0875 c             1 HST        0.803903
      23 O4          23.6117    17.2158    24.6965 o             1 HST       -0.581997
      24 N7          22.3525    18.0972    23.0230 n             1 HST       -0.507797
      25 C14         22.2112    19.4219    22.3303 c3            1 HST        0.235003
      26 C15         22.1105    16.8501    22.3257 c3            1 HST        0.293003
      27 N8          20.7083    16.5444    22.1964 n             1 HST       -0.507797
      28 C16         19.8392    17.2464    21.1946 c3            1 HST        0.235003
      29 C17         20.1717    15.3570    22.4842 c             1 HST        0.803903
      30 O5          20.7985    14.4488    23.0195 o             1 HST       -0.581997
      31 N9          18.8670    15.2971    22.0524 n             1 HST       -0.507797
      32 C18         18.5570    16.3774    21.1250 c3            1 HST        0.235003
      33 C19         18.1405    14.0522    22.0167 c3            1 HST        0.293003
      34 N10         17.0686    14.1399    23.0483 n             1 HST       -0.507797
      35 C20         15.7256    14.6362    22.6596 c3            1 HST        0.235003
      36 C21         17.0555    13.6341    24.2453 c             1 HST        0.803903
      37 O6          18.0499    13.0231    24.7225 o             1 HST       -0.581997
      38 N11         15.7266    13.5535    24.6943 n             1 HST       -0.507797
      39 C22         14.8350    14.3272    23.8878 c3            1 HST        0.235003
      40 C23         15.2375    12.6701    25.6779 c3            1 HST        0.293003
      41 N12         14.9550    13.3676    26.9380 n             1 HST       -0.507797
      42 C24         13.6908    14.0874    27.1568 c3            1 HST        0.235003
      43 C25         15.7264    13.2072    28.0603 c             1 HST        0.803903
      44 O7          16.7051    12.4756    28.2353 o             1 HST       -0.581997
      45 N13         15.0005    13.7579    29.1003 n             1 HST       -0.507797
      46 C26         13.6811    14.2577    28.6460 c3            1 HST        0.235003
      47 C27         15.1755    13.3865    30.5122 c3            1 HST        0.293003
      48 N14         15.4613    14.5051    31.4423 n             1 HST       -0.507797
      49 C28         14.3603    15.3366    31.9323 c3            1 HST        0.235003
      50 C29         16.5702    14.6261    32.2058 c             1 HST        0.803903
      51 O8          17.5701    14.0252    32.0072 o             1 HST       -0.581997
      52 N15         16.3153    15.5231    33.2368 n             1 HST       -0.507797
      53 C30         17.2599    15.7810    34.3696 c3            1 HST        0.293003
      54 C31         14.9363    15.9505    33.2283 c3            1 HST        0.235003
      55 N16         17.9449    17.0519    34.3941 n             1 HST       -0.507797
      56 C32         17.3500    18.3221    34.8621 c3            1 HST        0.235003
      57 N17         16.3022    18.8750    34.0391 n             1 HST       -0.507797
      58 C33         14.9179    18.3940    34.0857 c3            1 HST        0.293003
      59 C34         16.6370    19.9864    33.3054 c             1 HST        0.803903
      60 O9          15.8974    20.5830    32.5410 o             1 HST       -0.581997
      61 N18         17.9264    20.2444    33.6441 n             1 HST       -0.507797
      62 C35         18.6478    21.4729    33.2812 c3            1 HST        0.293003
      63 N19         19.6736    21.1748    32.3321 n             1 HST       -0.507797
      64 C36         19.5283    21.6786    31.0652 c             1 HST        0.803903
      65 O10         18.4584    22.1381    30.6206 o             1 HST       -0.581997
      66 N20         20.7787    21.8203    30.4818 n             1 HST       -0.507797
      67 C37         21.0186    22.7227    29.3925 c3            1 HST        0.293003
      68 N21         21.6223    22.1155    28.1938 n             1 HST       -0.507797
      69 C38         21.1662    22.3694    26.8915 c             1 HST        0.803903
      70 O11         20.1136    22.8664    26.5932 o             1 HST       -0.581997
      71 N22         22.1571    22.0455    26.0362 n             1 HST       -0.507797
      72 C39         22.1864    22.3944    24.6540 c3            1 HST        0.293003
      73 N23         21.8562    21.2159    23.8213 n             1 HST       -0.507797
      74 C40         20.7077    21.0816    23.1135 c             1 HST        0.803903
      75 O12         19.6697    21.6274    23.3270 o             1 HST       -0.581997
      76 N24         20.8766    20.0515    22.2854 n             1 HST       -0.507797
      77 C41         20.0003    19.6950    21.2009 c3            1 HST        0.293003
      78 N25         19.2444    18.5231    21.6130 n             1 HST       -0.507797
      79 C42         17.8789    18.5093    21.6928 c             1 HST        0.803903
      80 O13         17.1222    19.4781    21.7982 o             1 HST       -0.581997
      81 N26         17.4708    17.2016    21.4704 n             1 HST       -0.507797
      82 C43         16.0914    16.7542    21.3993 c3            1 HST        0.293003
      83 N27         15.6919    16.0835    22.6420 n             1 HST       -0.507797
      84 C44         14.9164    16.6251    23.5849 c             1 HST        0.803903
      85 O14         14.6203    17.8193    23.6167 o             1 HST       -0.581997
      86 N28         14.5283    15.5837    24.4618 n             1 HST       -0.507797
      87 C45         13.3130    15.6802    25.2799 c3            1 HST        0.293003
      88 N29         13.5995    15.4119    26.6639 n             1 HST       -0.507797
      89 C46         13.5586    16.4058    27.6310 c             1 HST        0.803903
      90 O15         13.3918    17.6048    27.5551 o             1 HST       -0.581997
      91 N30         13.7145    15.7558    28.8504 n             1 HST       -0.507797
      92 C47         13.0896    16.3251    30.0021 c3            1 HST        0.293003
      93 N31         14.0377    16.5205    31.0630 n             1 HST       -0.507797
      94 C48         14.1257    17.6886    31.7981 c             1 HST        0.803903
      95 N32         14.7371    17.3674    33.0162 n             1 HST       -0.507797
      96 O16         13.7265    18.7729    31.3489 o             1 HST       -0.581997
      97 H1          18.8764    19.8138    35.5494 h2            1 HST        0.089103
      98 H2          21.7128    18.1566    34.3536 h2            1 HST        0.088303
      99 H3          21.0501    19.6377    34.9625 h2            1 HST        0.088303
     100 H4          21.2215    21.7245    33.5297 h2            1 HST        0.089103
     101 H5          22.5545    22.1146    31.4987 h2            1 HST        0.089103
     102 H6          24.0997    19.0864    30.0056 h2            1 HST        0.088303
     103 H7          24.3526    20.8563    30.3613 h2            1 HST        0.088303
     104 H8          23.6467    22.4953    28.7442 h2            1 HST        0.089103
     105 H9          24.1495    22.6266    26.6331 h2            1 HST        0.089103
     106 H10         25.3553    19.3158    25.2396 h2            1 HST        0.088303
     107 H11         24.9395    20.9649    24.7329 h2            1 HST        0.088303
     108 H12         23.8077    20.7916    22.7525 h2            1 HST        0.089103
     109 H13         22.7393    19.3623    21.3717 h2            1 HST        0.089103
     110 H14         22.5725    16.8887    21.3325 h2            1 HST        0.088303
     111 H15         22.6855    16.0502    22.8064 h2            1 HST        0.088303
     112 H16         20.2626    17.3402    20.1879 h2            1 HST        0.089103
     113 H17         18.3493    16.0089    20.1138 h2            1 HST        0.089103
     114 H18         17.5891    13.8464    21.0920 h2            1 HST        0.088303
     115 H19         18.7249    13.1716    22.3076 h2            1 HST        0.088303
     116 H20         15.3998    14.1016    21.7599 h2            1 HST        0.089103
     117 H21         13.9716    13.7497    23.5379 h2            1 HST        0.089103
     118 H22         14.2777    12.2806    25.3195 h2            1 HST        0.088303
     119 H23         15.9253    11.8363    25.8598 h2            1 HST        0.088303
     120 H24         12.7640    13.5206    27.0109 h2            1 HST        0.089103
     121 H25         12.8233    13.9426    29.2513 h2            1 HST        0.089103
     122 H26         14.2441    12.9216    30.8552 h2            1 HST        0.088303
     123 H27         15.9624    12.6257    30.5715 h2            1 HST        0.088303
     124 H28         13.4448    14.7375    31.9970 h2            1 HST        0.089103
     125 H29         18.0494    15.0233    34.3063 h2            1 HST        0.088303
     126 H30         16.6821    15.7369    35.3000 h2            1 HST        0.088303
     127 H31         14.2785    15.6794    34.0621 h2            1 HST        0.089103
     128 H32         17.2009    18.2353    35.9446 h2            1 HST        0.089103
     129 H33         14.6841    17.9578    35.0637 h2            1 HST        0.088303
     130 H34         14.2230    19.2269    33.9282 h2            1 HST        0.088303
     131 H35         19.0841    21.7797    34.2388 h2            1 HST        0.088303
     132 H36         18.0299    22.3051    32.9246 h2            1 HST        0.088303
     133 H37         21.7127    23.4807    29.7736 h2            1 HST        0.088303
     134 H38         20.0545    23.1886    29.1583 h2            1 HST        0.088303
     135 H39         23.1490    22.7848    24.3041 h2            1 HST        0.088303
     136 H40         21.3713    23.1045    24.4724 h2            1 HST        0.088303
     137 H41         19.4671    20.6310    20.9982 h2            1 HST        0.088303
     138 H42         20.6233    19.3973    20.3496 h2            1 HST        0.088303
     139 H43         15.3621    17.5686    21.3197 h2            1 HST        0.088303
     140 H44         15.9773    16.0884    20.5361 h2            1 HST        0.088303
     141 H45         12.9040    16.6971    25.2865 h2            1 HST        0.088303
     142 H46         12.5730    14.9727    24.8885 h2            1 HST        0.088303
     143 H47         12.6720    17.2823    29.6693 h2            1 HST        0.088303
     144 H48         12.2427    15.7097    30.3268 h2            1 HST        0.088303
@<TRIPOS>BOND
       1       94       95 1
       2       94       96 1
       3       93       94 1
       4       92       93 1
       5       91       92 1
       6       89       91 1
       7       89       90 1
       8       88       89 1
       9       87       88 1
      10       86       87 1
      11       84       86 1
      12       84       85 1
      13       83       84 1
      14       82       83 1
      15       81       82 1
      16       79       81 1
      17       79       80 1
      18       78       79 1
      19       77       78 1
      20       76       77 1
      21       74       76 1
      22       74       75 1
      23       73       74 1
      24       72       73 1
      25       71       72 1
      26       69       70 1
      27       69       71 1
      28       68       69 1
      29       67       68 1
      30       66       67 1
      31       64       65 1
      32       64       66 1
      33       63       64 1
      34       62       63 1
      35       61       62 1
      36       59       61 1
      37       59       60 1
      38       58       95 1
      39       57       58 1
      40       57       59 1
      41       56       57 1
      42       55       56 1
      43       54       95 1
      44       53       55 1
      45       52       53 1
      46       52       54 1
      47       50       51 1
      48       50       52 1
      49       49       54 1
      50       49       93 1
      51       48       50 1
      52       48       49 1
      53       47       48 1
      54       46       91 1
      55       45       47 1
      56       45       46 1
      57       43       45 1
      58       43       44 1
      59       42       46 1
      60       42       88 1
      61       41       43 1
      62       41       42 1
      63       40       41 1
      64       39       86 1
      65       38       40 1
      66       38       39 1
      67       36       38 1
      68       36       37 1
      69       35       39 1
      70       35       83 1
      71       34       36 1
      72       34       35 1
      73       33       34 1
      74       32       81 1
      75       31       33 1
      76       31       32 1
      77       29       30 1
      78       29       31 1
      79       28       32 1
      80       28       78 1
      81       27       29 1
      82       27       28 1
      83       26       27 1
      84       25       76 1
      85       24       26 1
      86       24       25 1
      87       22       23 1
      88       22       24 1
      89       21       25 1
      90       21       73 1
      91       20       22 1
      92       20       21 1
      93       19       20 1
      94       18       71 1
      95       17       18 1
      96       17       19 1
      97       15       16 1
      98       15       17 1
      99       14       18 1
     100       14       68 1
     101       13       15 1
     102       13       14 1
     103       12       13 1
     104       11       66 1
     105       10       11 1
     106       10       12 1
     107        8        9 1
     108        8       10 1
     109        7       11 1
     110        7       63 1
     111        6        7 1
     112        6        8 1
     113        5        6 1
     114        4       56 1
     115        4       61 1
     116        3        4 1
     117        3        5 1
     118        2       55 1
     119        2        3 1
     120        1        2 1
     121       92      143 1
     122       92      144 1
     123       87      141 1
     124       87      142 1
     125       82      139 1
     126       82      140 1
     127       77      137 1
     128       77      138 1
     129       72      135 1
     130       72      136 1
     131       67      133 1
     132       67      134 1
     133       62      131 1
     134       62      132 1
     135       58      129 1
     136       58      130 1
     137       56      128 1
     138       54      127 1
     139       53      125 1
     140       53      126 1
     141       49      124 1
     142       47      122 1
     143       47      123 1
     144       46      121 1
     145       42      120 1
     146       40      118 1
     147       40      119 1
     148       39      117 1
     149       35      116 1
     150       33      114 1
     151       33      115 1
     152       32      113 1
     153       28      112 1
     154       26      110 1
     155       26      111 1
     156       25      109 1
     157       21      108 1
     158       19      106 1
     159       19      107 1
     160       18      105 1
     161       14      104 1
     162       12      102 1
     163       12      103 1
     164       11      101 1
     165        7      100 1
     166        5       98 1
     167        5       99 1
     168        4       97 1
@<TRIPOS>SUBSTRUCTURE
       1 HST             1 RESIDUE    0 **** ROOT      0
