@<TRIPOS>MOLECULE
HST
184 204 1 0 1
SMALL
USER_CHARGES
@<TRIPOS>CRYSIN
   42.7365    43.2287    43.2599    90.0000    90.0000    90.0000  1  1
@<TRIPOS>ATOM
       1 C1          30.9249    22.5339    29.1279 ca            1 HST       -0.079381
       2 C2          31.9071    25.1386    28.5722 ca            1 HST        0.094407
       3 C3          30.7572    23.5518    30.0984 ca            1 HST       -0.086793
       4 C4          31.4446    22.8110    27.8589 ca            1 HST        0.094407
       5 C5          32.0308    24.1097    27.6222 ca            1 HST       -0.145993
       6 C6          31.3988    24.8316    29.8642 ca            1 HST       -0.078493
       7 O1          32.2030    26.4647    28.1932 os            1 HST       -0.354893
       8 C7          31.4449    25.9478    30.9563 c3            1 HST        0.028407
       9 C8          31.0734    27.3563    27.9191 c3            1 HST        0.385107
      10 O2          30.7891    28.0970    29.1824 os            1 HST       -0.354893
      11 C9          29.8315    27.6348    29.9951 ca            1 HST        0.094407
      12 C10         30.0529    26.5990    30.9179 ca            1 HST       -0.078493
      13 C11         29.0135    26.2616    31.8109 ca            1 HST       -0.086793
      14 C12         28.6763    28.4043    30.0321 ca            1 HST       -0.145993
      15 C13         27.7631    26.9142    31.6491 ca            1 HST       -0.078493
      16 C14         27.5938    28.0813    30.8250 ca            1 HST        0.094407
      17 O3          26.4400    28.8402    30.6523 os            1 HST       -0.354893
      18 C15         26.5494    26.4689    32.4545 c3            1 HST        0.028407
      19 C16         25.6793    25.6289    31.5133 ca            1 HST       -0.078493
      20 C17         24.7831    26.1678    30.5970 ca            1 HST        0.094407
      21 C18         25.4517    28.3122    29.8495 c3            1 HST        0.385107
      22 O4          24.5650    27.5417    30.6864 os            1 HST       -0.354893
      23 O5          31.2421    22.0303    26.7736 os            1 HST       -0.354893
      24 C19         30.2889    21.1308    29.3746 c3            1 HST        0.028407
      25 C20         28.7469    21.2156    29.0345 ca            1 HST       -0.078493
      26 O6          29.3503    20.7211    26.7601 os            1 HST       -0.354893
      27 C21         28.3884    20.9561    27.7019 ca            1 HST        0.094407
      28 C22         24.1688    25.4146    29.6040 ca            1 HST       -0.145993
      29 C23         24.3411    24.0316    29.6258 ca            1 HST        0.094407
      30 C24         27.0385    20.9928    27.3240 ca            1 HST       -0.145993
      31 C25         26.0214    21.2594    28.2577 ca            1 HST        0.094407
      32 O7          23.7166    23.3495    28.6303 os            1 HST       -0.354893
      33 O8          24.7416    21.5093    27.8324 os            1 HST       -0.354893
      34 C26         24.4876    22.8640    27.5159 c3            1 HST        0.385107
      35 C27         27.7497    21.4590    30.0162 ca            1 HST       -0.086793
      36 C28         26.3701    21.5335    29.6457 ca            1 HST       -0.078493
      37 C29         25.8263    24.2099    31.5017 ca            1 HST       -0.086793
      38 C30         25.2137    21.8969    30.6369 c3            1 HST        0.028407
      39 C31         25.0558    23.4048    30.6566 ca            1 HST       -0.078493
      40 C32         29.9210    21.8795    26.1782 c3            1 HST        0.385107
      41 C33         26.8199    25.8694    33.8774 c3            1 HST       -0.059693
      42 C34         25.4472    25.5951    34.7160 c3            1 HST       -0.187693
      43 C35         25.8008    25.3079    36.1865 c             1 HST        0.906807
      44 O9          25.8548    24.1832    36.6362 o             1 HST       -0.865693
      45 C36         31.9293    25.3469    32.3709 c3            1 HST       -0.059693
      46 C37         32.3095    26.4306    33.4418 c3            1 HST       -0.187693
      47 C38         33.0272    25.8688    34.7247 c             1 HST        0.906807
      48 O10         32.4383    25.8716    35.7940 o             1 HST       -0.865693
      49 C39         30.5369    20.4640    30.7467 c3            1 HST       -0.059693
      50 C40         32.0975    20.1191    31.0032 c3            1 HST       -0.187693
      51 C41         32.1892    19.5615    32.4221 c             1 HST        0.906807
      52 O11         32.0257    18.3636    32.4902 o             1 HST       -0.865693
      53 C42         25.4239    21.2099    32.0113 c3            1 HST       -0.059693
      54 C43         24.3002    21.6098    33.0009 c3            1 HST       -0.187693
      55 C44         24.3914    20.7360    34.2482 c             1 HST        0.906807
      56 O12         25.4060    20.7483    35.0049 o             1 HST       -0.865693
      57 C45         31.3621    28.2222    26.6903 ca            1 HST       -0.077493
      58 C46         31.3882    29.5569    24.1920 ca            1 HST       -0.142593
      59 C47         30.6126    29.4443    26.4751 ca            1 HST       -0.129193
      60 C48         32.1377    27.7383    25.6164 ca            1 HST       -0.129193
      61 C49         31.9692    28.2967    24.3065 ca            1 HST        0.108807
      62 C50         30.6393    30.1380    25.2625 ca            1 HST        0.108807
      63 C51         30.0708    21.6477    24.7071 ca            1 HST       -0.077493
      64 C52         30.0288    21.7894    21.8835 ca            1 HST       -0.142593
      65 C53         29.1922    20.8767    23.9195 ca            1 HST       -0.129193
      66 C54         31.0753    22.3687    23.9897 ca            1 HST       -0.129193
      67 C55         31.0862    22.4103    22.5888 ca            1 HST        0.108807
      68 C56         29.1678    20.9669    22.5493 ca            1 HST        0.108807
      69 C57         23.7364    23.0176    26.2052 ca            1 HST       -0.077493
      70 C58         22.7582    23.5377    23.5932 ca            1 HST       -0.142593
      71 C59         22.8939    24.1254    25.8980 ca            1 HST       -0.129193
      72 C60         24.0726    22.1736    25.1073 ca            1 HST       -0.129193
      73 C61         23.5639    22.4569    23.8386 ca            1 HST        0.108807
      74 C62         22.3751    24.3779    24.6601 ca            1 HST        0.108807
      75 C63         24.6496    29.2346    29.0036 ca            1 HST       -0.077493
      76 C64         23.4943    30.9118    27.0765 ca            1 HST       -0.142593
      77 C65         23.3518    28.9585    28.5146 ca            1 HST       -0.129193
      78 C66         25.3255    30.3526    28.5013 ca            1 HST       -0.129193
      79 C67         24.7651    31.1875    27.5092 ca            1 HST        0.108807
      80 C68         22.7188    29.8031    27.5274 ca            1 HST        0.108807
      81 O13         31.7988    23.2784    21.8171 os            1 HST       -0.300893
      82 O14         23.7710    21.5845    22.8284 os            1 HST       -0.300893
      83 O15         21.6449    25.5487    24.4391 os            1 HST       -0.300893
      84 O16         32.6560    27.8380    23.2363 os            1 HST       -0.300893
      85 O17         29.8674    31.2344    24.9928 os            1 HST       -0.300893
      86 O18         21.4263    29.5884    27.0583 os            1 HST       -0.300893
      87 O19         25.4950    32.2376    26.9595 os            1 HST       -0.300893
      88 C69         24.6856    20.5615    22.6954 ca            1 HST        0.065707
      89 C70         26.6741    18.6360    22.6218 ca            1 HST       -0.108993
      90 C71         25.9796    20.9104    22.2857 ca            1 HST       -0.176193
      91 C72         24.4221    19.2234    23.0500 ca            1 HST       -0.108993
      92 C73         25.4122    18.2423    23.0671 ca            1 HST       -0.085593
      93 C74         26.9891    19.9260    22.2119 ca            1 HST        0.065707
      94 O20         28.2679    20.2968    21.7912 os            1 HST       -0.300893
      95 C75         33.0756    26.5297    23.0375 ca            1 HST        0.065707
      96 C76         33.9868    23.9632    22.4826 ca            1 HST       -0.108993
      97 C77         34.4876    26.1936    23.1656 ca            1 HST       -0.108993
      98 C78         32.1831    25.5530    22.5985 ca            1 HST       -0.176193
      99 C79         32.6583    24.2543    22.3483 ca            1 HST        0.065707
     100 C80         35.0045    24.9116    22.8167 ca            1 HST       -0.085593
     101 C81         21.0946    26.2649    25.4986 ca            1 HST        0.065707
     102 C82         19.6194    28.0365    27.1007 ca            1 HST       -0.108993
     103 C83         19.8529    25.8884    25.9717 ca            1 HST       -0.108993
     104 C84         21.6540    27.5096    25.9028 ca            1 HST       -0.176193
     105 C85         20.9239    28.3495    26.7051 ca            1 HST        0.065707
     106 C86         19.0760    26.7543    26.8306 ca            1 HST       -0.085593
     107 C87         17.6784    26.3592    27.3152 c             1 HST        0.919807
     108 O21         17.6216    25.1659    27.7327 o             1 HST       -0.835293
     109 C88         29.5503    34.1745    28.8881 c             1 HST        0.919807
     110 O22         30.7156    34.1250    28.9924 o             1 HST       -0.835293
     111 C89         36.4482    24.6424    22.9881 c             1 HST        0.919807
     112 O23         36.8840    23.5129    22.6953 o             1 HST       -0.835293
     113 O24         26.1507    26.2523    36.8805 o             1 HST       -0.865693
     114 O25         23.3573    20.2315    34.6079 o             1 HST       -0.865693
     115 O26         32.5417    20.1731    33.4440 o             1 HST       -0.865693
     116 C90         25.1406    16.8148    23.4333 c             1 HST        0.919807
     117 O27         25.6779    15.9158    22.8681 o             1 HST       -0.835293
     118 O28         28.8288    34.9810    29.5084 o             1 HST       -0.835293
     119 O29         17.0380    27.2671    27.7663 o             1 HST       -0.835293
     120 O30         24.0936    16.5978    23.9952 o             1 HST       -0.835293
     121 O31         37.2458    25.5085    23.1877 o             1 HST       -0.835293
     122 O32         34.0243    25.2567    34.5708 o             1 HST       -0.865693
     123 C91         29.0528    31.8227    25.9342 ca            1 HST        0.065707
     124 C92         27.5103    33.0787    27.9519 ca            1 HST       -0.108993
     125 C93         27.6693    31.6567    26.0364 ca            1 HST       -0.176193
     126 C94         29.6282    32.6460    26.9155 ca            1 HST       -0.108993
     127 C95         28.8973    33.2453    27.9378 ca            1 HST       -0.085593
     128 C96         26.9058    32.3758    26.9686 ca            1 HST        0.065707
     129 H1          30.3157    23.3101    31.0607 ha            1 HST        0.171207
     130 H2          32.3550    24.2233    26.5920 ha            1 HST        0.154707
     131 H3          32.2496    26.6356    30.6688 hc            1 HST        0.058007
     132 H4          30.3068    26.6693    27.5424 h2            1 HST        0.068607
     133 H5          29.2376    25.5510    32.6010 ha            1 HST        0.171207
     134 H6          28.6758    29.3159    29.4419 ha            1 HST        0.154707
     135 H7          25.9722    27.3488    32.7640 hc            1 HST        0.058007
     136 H8          25.9232    27.6547    29.1100 h2            1 HST        0.068607
     137 H9          30.8676    20.4622    28.7256 hc            1 HST        0.058007
     138 H10         23.7041    25.8570    28.7278 ha            1 HST        0.154707
     139 H11         26.7723    20.7011    26.3123 ha            1 HST        0.154707
     140 H12         25.3865    23.4910    27.5325 h2            1 HST        0.068607
     141 H13         28.1902    21.7850    30.9538 ha            1 HST        0.171207
     142 H14         26.5379    23.6955    32.1409 ha            1 HST        0.171207
     143 H15         24.3363    21.4611    30.1434 hc            1 HST        0.058007
     144 H16         29.3043    22.7732    26.3282 h2            1 HST        0.068607
     145 H17         27.3857    24.9361    33.7680 hc            1 HST        0.058607
     146 H18         27.4258    26.5438    34.4948 hc            1 HST        0.058607
     147 H19         24.7773    26.4635    34.7281 hc            1 HST        0.019207
     148 H20         24.9386    24.6553    34.4685 hc            1 HST        0.019207
     149 H21         32.7491    24.6705    32.1000 hc            1 HST        0.058607
     150 H22         31.1427    24.7203    32.8089 hc            1 HST        0.058607
     151 H23         33.0367    27.0876    32.9491 hc            1 HST        0.019207
     152 H24         31.4500    27.1039    33.5467 hc            1 HST        0.019207
     153 H25         30.0823    21.1125    31.5057 hc            1 HST        0.058607
     154 H26         29.8697    19.6248    30.9785 hc            1 HST        0.058607
     155 H27         32.6175    19.4575    30.2995 hc            1 HST        0.019207
     156 H28         32.7305    21.0127    30.9398 hc            1 HST        0.019207
     157 H29         25.5374    20.1209    31.9460 hc            1 HST        0.058607
     158 H30         26.3715    21.5978    32.4046 hc            1 HST        0.058607
     159 H31         24.3497    22.6503    33.3447 hc            1 HST        0.019207
     160 H32         23.2899    21.5279    32.5818 hc            1 HST        0.019207
     161 H33         31.5482    30.0584    23.2421 ha            1 HST        0.159907
     162 H34         29.9465    29.8108    27.2506 ha            1 HST        0.151007
     163 H35         32.7380    26.8410    25.7339 ha            1 HST        0.151007
     164 H36         30.0503    21.8184    20.7981 ha            1 HST        0.159907
     165 H37         28.2865    20.4816    24.3699 ha            1 HST        0.151007
     166 H38         31.7365    23.0234    24.5496 ha            1 HST        0.151007
     167 H39         22.3663    23.7421    22.6012 ha            1 HST        0.159907
     168 H40         22.7826    24.8761    26.6747 ha            1 HST        0.151007
     169 H41         24.6763    21.2836    25.2579 ha            1 HST        0.151007
     170 H42         23.0422    31.5188    26.2977 ha            1 HST        0.159907
     171 H43         22.8053    28.0923    28.8758 ha            1 HST        0.151007
     172 H44         26.3432    30.6114    28.7779 ha            1 HST        0.151007
     173 H45         27.4724    17.9001    22.5969 ha            1 HST        0.165507
     174 H46         26.1506    21.9183    21.9192 ha            1 HST        0.130107
     175 H47         23.4111    18.9829    23.3655 ha            1 HST        0.165507
     176 H48         34.2274    22.9532    22.1641 ha            1 HST        0.165507
     177 H49         35.1874    26.9703    23.4594 ha            1 HST        0.165507
     178 H50         31.1453    25.8197    22.4214 ha            1 HST        0.130107
     179 H51         19.0264    28.7524    27.6621 ha            1 HST        0.165507
     180 H52         19.3338    24.9653    25.7314 ha            1 HST        0.165507
     181 H53         22.6479    27.7075    25.5125 ha            1 HST        0.130107
     182 H54         26.8952    33.5612    28.7057 ha            1 HST        0.165507
     183 H55         27.1461    30.9765    25.3709 ha            1 HST        0.130107
     184 H56         30.7024    32.8056    26.9119 ha            1 HST        0.165507
@<TRIPOS>BOND
       1      126      127 1
       2      125      128 1
       3      124      127 1
       4      124      128 1
       5      123      125 1
       6      123      126 1
       7      116      117 1
       8      116      120 1
       9      111      112 1
      10      111      121 1
      11      109      110 1
      12      109      118 1
      13      109      127 1
      14      107      108 1
      15      107      119 1
      16      106      107 1
      17      104      105 1
      18      103      106 1
      19      102      105 1
      20      102      106 1
      21      101      103 1
      22      101      104 1
      23      100      111 1
      24       98       99 1
      25       97      100 1
      26       96       99 1
      27       96      100 1
      28       95       97 1
      29       95       98 1
      30       93       94 1
      31       92      116 1
      32       91       92 1
      33       90       93 1
      34       89       92 1
      35       89       93 1
      36       88       90 1
      37       88       91 1
      38       87      128 1
      39       86      105 1
      40       85      123 1
      41       84       95 1
      42       83      101 1
      43       82       88 1
      44       81       99 1
      45       80       86 1
      46       79       87 1
      47       78       79 1
      48       77       80 1
      49       76       79 1
      50       76       80 1
      51       75       77 1
      52       75       78 1
      53       74       83 1
      54       73       82 1
      55       72       73 1
      56       71       74 1
      57       70       73 1
      58       70       74 1
      59       69       71 1
      60       69       72 1
      61       68       94 1
      62       67       81 1
      63       66       67 1
      64       65       68 1
      65       64       67 1
      66       64       68 1
      67       63       65 1
      68       63       66 1
      69       62       85 1
      70       61       84 1
      71       60       61 1
      72       59       62 1
      73       58       61 1
      74       58       62 1
      75       57       59 1
      76       57       60 1
      77       55       56 1
      78       55      114 1
      79       54       55 1
      80       53       54 1
      81       51       52 1
      82       51      115 1
      83       50       51 1
      84       49       50 1
      85       47       48 1
      86       47      122 1
      87       46       47 1
      88       45       46 1
      89       43       44 1
      90       43      113 1
      91       42       43 1
      92       41       42 1
      93       40       63 1
      94       38       39 1
      95       38       53 1
      96       37       39 1
      97       36       38 1
      98       35       36 1
      99       34       69 1
     100       33       34 1
     101       32       34 1
     102       31       33 1
     103       31       36 1
     104       30       31 1
     105       29       32 1
     106       29       39 1
     107       28       29 1
     108       27       30 1
     109       26       27 1
     110       26       40 1
     111       25       27 1
     112       25       35 1
     113       24       25 1
     114       24       49 1
     115       23       40 1
     116       21       22 1
     117       21       75 1
     118       20       22 1
     119       20       28 1
     120       19       20 1
     121       19       37 1
     122       18       19 1
     123       18       41 1
     124       17       21 1
     125       16       17 1
     126       15       16 1
     127       15       18 1
     128       14       16 1
     129       13       15 1
     130       12       13 1
     131       11       12 1
     132       11       14 1
     133       10       11 1
     134        9       10 1
     135        9       57 1
     136        8       12 1
     137        8       45 1
     138        7        9 1
     139        6        8 1
     140        4        5 1
     141        4       23 1
     142        3        6 1
     143        2        5 1
     144        2        6 1
     145        2        7 1
     146        1        3 1
     147        1        4 1
     148        1       24 1
     149      126      184 1
     150      125      183 1
     151      124      182 1
     152      104      181 1
     153      103      180 1
     154      102      179 1
     155       98      178 1
     156       97      177 1
     157       96      176 1
     158       91      175 1
     159       90      174 1
     160       89      173 1
     161       78      172 1
     162       77      171 1
     163       76      170 1
     164       72      169 1
     165       71      168 1
     166       70      167 1
     167       66      166 1
     168       65      165 1
     169       64      164 1
     170       60      163 1
     171       59      162 1
     172       58      161 1
     173       54      159 1
     174       54      160 1
     175       53      157 1
     176       53      158 1
     177       50      155 1
     178       50      156 1
     179       49      153 1
     180       49      154 1
     181       46      151 1
     182       46      152 1
     183       45      149 1
     184       45      150 1
     185       42      147 1
     186       42      148 1
     187       41      145 1
     188       41      146 1
     189       40      144 1
     190       38      143 1
     191       37      142 1
     192       35      141 1
     193       34      140 1
     194       30      139 1
     195       28      138 1
     196       24      137 1
     197       21      136 1
     198       18      135 1
     199       14      134 1
     200       13      133 1
     201        9      132 1
     202        8      131 1
     203        5      130 1
     204        3      129 1
@<TRIPOS>SUBSTRUCTURE
       1 HST             1 RESIDUE    0 **** ROOT      0
