@<TRIPOS>MOLECULE
GST
49 52 1 0 1
SMALL
USER_CHARGES
@<TRIPOS>CRYSIN
   40.8080    40.6472    40.5420    90.0000    90.0000    90.0000  1  1
@<TRIPOS>ATOM
       1 C1          14.3646    18.9011    22.1575 ca            1 GST       -0.117588
       2 C2          13.6077    17.7600    21.8532 ca            1 GST       -0.155594
       3 C3          18.4154    18.9408    21.4434 ca            1 GST       -0.240594
       4 C4          15.5881    16.5766    21.2082 ca            1 GST       -0.222794
       5 C5          17.7167    20.0357    21.9707 ca            1 GST        0.393806
       6 C6          16.3891    17.6701    21.5305 ca            1 GST       -0.089794
       7 C7          17.7757    17.7374    21.2721 ca            1 GST       -0.134794
       8 C8          15.7525    18.8657    22.0538 ca            1 GST        0.364606
       9 C9          14.2194    16.6231    21.3728 ca            1 GST        0.167506
      10 C10         23.7769    17.2864    20.9991 c2            1 GST       -0.158994
      11 C11         23.7882    16.1302    21.6163 c2            1 GST       -0.212394
      12 C12         20.8743    14.0557    23.0002 c3            1 GST       -0.098594
      13 C13         20.9159    15.2505    20.8002 c3            1 GST       -0.088494
      14 C14         19.9095    15.1845    23.4535 c3            1 GST        0.114206
      15 C15         21.7385    16.8586    23.2613 c3            1 GST        0.115206
      16 C16         22.6778    15.7340    22.6231 c3            1 GST       -0.039494
      17 C17         21.8508    14.6393    21.9411 c3            1 GST       -0.071194
      18 C18         20.1469    16.4684    21.3591 c3            1 GST        0.097006
      19 C19         12.2662    15.0989    21.5831 c3            1 GST        0.108506
      20 C20         18.6958    16.5431    20.8441 c3            1 GST        0.186806
      21 N1          16.4217    20.0383    22.2050 nb            1 GST       -0.604294
      22 N2          20.2468    16.5182    22.8736 n4            1 GST       -0.682794
      23 O1          18.7920    16.7800    19.4863 oh            1 GST       -0.571294
      24 O2          13.5122    15.4183    21.0734 os            1 GST       -0.315094
      25 H1          13.9192    19.8473    22.4502 ha            1 GST        0.172306
      26 H2          12.5269    17.7270    21.9540 ha            1 GST        0.166306
      27 H3          19.4847    19.0842    21.3199 ha            1 GST        0.137006
      28 H4          16.0246    15.6521    20.8421 ha            1 GST        0.138606
      29 H5          18.2262    20.9784    22.1646 h4            1 GST        0.043206
      30 H6          24.5825    17.6105    20.3436 ha            1 GST        0.131706
      31 H7          22.9182    17.9357    21.1557 ha            1 GST        0.131706
      32 H8          24.6361    15.4574    21.5074 ha            1 GST        0.131906
      33 H9          21.3990    13.7606    23.9171 hc            1 GST        0.086206
      34 H10         20.4596    13.2042    22.4468 hc            1 GST        0.086206
      35 H11         21.4423    15.5870    19.8987 hc            1 GST        0.091006
      36 H12         20.4348    14.4242    20.2627 hc            1 GST        0.091006
      37 H13         18.8781    15.0120    23.1424 hx            1 GST        0.101606
      38 H14         19.9756    15.2330    24.5414 hx            1 GST        0.101606
      39 H15         21.8929    16.7686    24.3376 hx            1 GST        0.099806
      40 H16         21.9875    17.8432    22.8627 hx            1 GST        0.099806
      41 H17         23.2359    15.2947    23.4589 hc            1 GST        0.088106
      42 H18         22.5197    13.9489    21.4129 hc            1 GST        0.111606
      43 H19         20.5768    17.3617    20.9036 hx            1 GST        0.098506
      44 H20         12.1646    14.0664    21.2270 h1            1 GST        0.055406
      45 H21         11.4151    15.6932    21.2287 h1            1 GST        0.055406
      46 H22         12.3132    15.1436    22.6781 h1            1 GST        0.055406
      47 H23         18.1442    15.6041    20.9747 h1            1 GST        0.095506
      48 H24         19.5331    17.1900    23.1914 hn            1 GST        0.458306
      49 H25         18.1020    17.3870    19.1665 ho            1 GST        0.427906
@<TRIPOS>BOND
       1       20       23 1
       2       19       24 1
       3       18       20 1
       4       18       22 1
       5       16       17 1
       6       15       16 1
       7       15       22 1
       8       14       22 1
       9       13       17 1
      10       13       18 1
      11       12       14 1
      12       12       17 1
      13       11       16 1
      14       10       11 1
      15        9       24 1
      16        8       21 1
      17        7       20 1
      18        6        7 1
      19        6        8 1
      20        5       21 1
      21        4        6 1
      22        4        9 1
      23        3        5 1
      24        3        7 1
      25        2        9 1
      26        1        2 1
      27        1        8 1
      28       23       49 1
      29       22       48 1
      30       20       47 1
      31       19       44 1
      32       19       45 1
      33       19       46 1
      34       18       43 1
      35       17       42 1
      36       16       41 1
      37       15       39 1
      38       15       40 1
      39       14       37 1
      40       14       38 1
      41       13       35 1
      42       13       36 1
      43       12       33 1
      44       12       34 1
      45       11       32 1
      46       10       30 1
      47       10       31 1
      48        5       29 1
      49        4       28 1
      50        3       27 1
      51        2       26 1
      52        1       25 1
@<TRIPOS>SUBSTRUCTURE
       1 GST             1 RESIDUE    0 **** ROOT      0
