@<TRIPOS>MOLECULE
HST
144 168 1 0 1
SMALL
USER_CHARGES
@<TRIPOS>CRYSIN
   40.8080    40.6472    40.5420    90.0000    90.0000    90.0000  1  1
@<TRIPOS>ATOM
       1 O1          19.0103    21.4199    19.7599 o             1 HST       -0.582429
       2 C1          20.0847    21.5127    19.2251 c             1 HST        0.803903
       3 N1          21.2643    21.8336    19.8183 n             1 HST       -0.507797
       4 C2          22.3090    22.0869    18.7636 c3            1 HST        0.235003
       5 C3          21.4023    22.3674    21.1925 c3            1 HST        0.293003
       6 N2          22.2487    21.4822    21.9483 n             1 HST       -0.507797
       7 C4          23.7013    21.7662    22.0571 c3            1 HST        0.235003
       8 C5          21.7454    20.9669    23.0779 c             1 HST        0.803903
       9 O2          20.5383    20.8094    23.2543 o             1 HST       -0.581997
      10 N3          22.7982    20.7488    23.9663 n             1 HST       -0.507797
      11 C6          24.0467    21.1873    23.4391 c3            1 HST        0.235003
      12 C7          22.5483    20.5866    25.4109 c3            1 HST        0.293003
      13 N4          22.9880    19.2156    25.7164 n             1 HST       -0.507797
      14 C8          24.3412    18.8295    26.0473 c3            1 HST        0.235003
      15 C9          22.0558    18.2940    26.1341 c             1 HST        0.803903
      16 O3          20.8514    18.3728    25.8958 o             1 HST       -0.581997
      17 N5          22.6807    17.2761    26.7674 n             1 HST       -0.507797
      18 C10         24.1514    17.5160    26.7464 c3            1 HST        0.235003
      19 C11         22.0977    16.5013    27.8331 c3            1 HST        0.293003
      20 N6          22.0155    15.0648    27.3890 n             1 HST       -0.507797
      21 C12         23.1654    14.1332    27.4732 c3            1 HST        0.235003
      22 C13         20.8803    14.3370    27.2385 c             1 HST        0.803903
      23 O4          19.7878    14.8235    27.1795 o             1 HST       -0.581997
      24 N7          21.1821    13.0513    27.2162 n             1 HST       -0.507797
      25 C14         22.5777    12.7395    27.4296 c3            1 HST        0.235003
      26 C15         20.1589    11.9709    27.2083 c3            1 HST        0.293003
      27 N8          20.0009    11.5109    25.8773 n             1 HST       -0.507797
      28 C16         20.6219    10.2739    25.4262 c3            1 HST        0.235003
      29 C17         19.0113    11.9171    25.1058 c             1 HST        0.803903
      30 O5          18.2109    12.8389    25.3794 o             1 HST       -0.581997
      31 N9          18.9554    11.1096    24.0376 n             1 HST       -0.507797
      32 C18         19.8817    10.0121    24.1399 c3            1 HST        0.235003
      33 C19         17.8653    11.1821    23.0767 c3            1 HST        0.293003
      34 N10         18.1715    11.4008    21.6858 n             1 HST       -0.507797
      35 C20         18.7502    10.4309    20.7657 c3            1 HST        0.235003
      36 C21         17.3996    12.3706    21.0156 c             1 HST        0.803903
      37 O6          16.5288    13.1408    21.4114 o             1 HST       -0.581997
      38 N11         17.6577    12.1772    19.6600 n             1 HST       -0.507797
      39 C22         18.5616    11.1095    19.3738 c3            1 HST        0.235003
      40 C23         16.7971    12.6624    18.5513 c3            1 HST        0.293003
      41 N12         17.4455    13.7034    17.7015 n             1 HST       -0.507797
      42 C24         18.3647    13.2854    16.6797 c3            1 HST        0.235003
      43 C25         17.1264    15.0340    17.6669 c             1 HST        0.803903
      44 O7          16.3532    15.6233    18.4608 o             1 HST       -0.581997
      45 N13         17.7511    15.5643    16.5753 n             1 HST       -0.507797
      46 C26         18.4850    14.5456    15.7435 c3            1 HST        0.235003
      47 C27         17.2822    16.8477    16.0119 c3            1 HST        0.293003
      48 N14         18.3110    17.7924    16.2059 n             1 HST       -0.507797
      49 C28         19.2464    17.9240    15.1089 c3            1 HST        0.235003
      50 C29         18.1901    18.9359    16.9772 c             1 HST        0.803903
      51 O8          17.4886    19.0669    17.9635 o             1 HST       -0.581997
      52 N15         19.0853    19.8238    16.4334 n             1 HST       -0.507797
      53 C30         19.2893    21.2525    16.7827 c3            1 HST        0.293003
      54 C31         19.8067    19.3960    15.2574 c3            1 HST        0.235003
      55 N16         20.2630    21.4509    17.9012 n             1 HST       -0.507797
      56 C32         21.6058    21.7408    17.4611 c3            1 HST        0.235003
      57 N17         22.4187    20.5972    17.0442 n             1 HST       -0.507797
      58 C33         22.2921    20.1491    15.7148 c3            1 HST        0.293003
      59 C34         23.5668    20.4117    17.7920 c             1 HST        0.803903
      60 O9          24.5925    19.7801    17.4923 o             1 HST       -0.581997
      61 N18         23.4411    21.2177    18.9083 n             1 HST       -0.507797
      62 C35         24.5865    21.5535    19.8062 c3            1 HST        0.293003
      63 N19         24.4022    20.9691    21.1381 n             1 HST       -0.507797
      64 C36         25.2714    20.0717    21.7495 c             1 HST        0.803903
      65 O10         26.1710    19.3979    21.2646 o             1 HST       -0.581997
      66 N20         24.9616    20.0471    23.0522 n             1 HST       -0.507797
      67 C37         25.8070    19.3703    24.0250 c3            1 HST        0.293003
      68 N21         25.1580    18.4273    24.9337 n             1 HST       -0.507797
      69 C38         25.5533    17.1104    24.9639 c             1 HST        0.803903
      70 O11         26.3553    16.5255    24.3104 o             1 HST       -0.581997
      71 N22         24.8675    16.5270    25.9230 n             1 HST       -0.507797
      72 C39         25.1915    15.1592    26.3631 c3            1 HST        0.293003
      73 N23         24.0956    14.1904    26.3791 n             1 HST       -0.507797
      74 C40         24.1947    13.0044    25.7335 c             1 HST        0.803903
      75 O12         24.8869    12.7044    24.8108 o             1 HST       -0.581997
      76 N24         23.3397    12.1269    26.3104 n             1 HST       -0.507797
      77 C41         23.1086    10.7267    25.9494 c3            1 HST        0.293003
      78 N25         22.0042    10.4815    24.9640 n             1 HST       -0.507797
      79 C42         22.0987    10.2310    23.6495 c             1 HST        0.803903
      80 O13         23.1832    10.1968    23.0977 o             1 HST       -0.581997
      81 N26         20.9220    10.0487    23.1550 n             1 HST       -0.507797
      82 C43         20.8386     9.4898    21.7627 c3            1 HST        0.293003
      83 N27         20.1987    10.4107    20.8266 n             1 HST       -0.507797
      84 C44         20.8608    11.0473    19.8206 c             1 HST        0.803903
      85 O14         22.0423    11.0824    19.6128 o             1 HST       -0.581997
      86 N28         19.9107    11.5091    18.9866 n             1 HST       -0.507797
      87 C45         20.1668    11.7119    17.5452 c3            1 HST        0.293003
      88 N29         19.7172    13.0395    17.1148 n             1 HST       -0.507797
      89 C46         20.5537    14.0679    16.6369 c             1 HST        0.803903
      90 O15         21.7783    14.0167    16.7607 o             1 HST       -0.581997
      91 N30         19.8469    14.8889    15.8139 n             1 HST       -0.507797
      92 C47         20.3514    15.7129    14.7500 c3            1 HST        0.293003
      93 N31         20.4314    17.0920    15.2184 n             1 HST       -0.507797
      94 C48         21.5650    17.7882    15.4919 c             1 HST        0.803903
      95 N32         21.2624    19.1472    15.5391 n             1 HST       -0.507797
      96 O16         22.7030    17.3206    15.5471 o             1 HST       -0.581997
      97 H1          22.6251    23.1365    18.7599 h2            1 HST        0.089103
      98 H2          20.4104    22.5256    21.6315 h2            1 HST        0.088303
      99 H3          21.8763    23.3553    21.1662 h2            1 HST        0.088303
     100 H4          23.8859    22.8463    22.0315 h2            1 HST        0.089103
     101 H5          24.5751    21.9468    24.0269 h2            1 HST        0.089103
     102 H6          21.4769    20.6048    25.6413 h2            1 HST        0.088303
     103 H7          23.0607    21.4128    25.9171 h2            1 HST        0.088303
     104 H8          24.7899    19.5756    26.7132 h2            1 HST        0.089103
     105 H9          24.6182    17.6196    27.7328 h2            1 HST        0.089103
     106 H10         21.0763    16.8738    27.9726 h2            1 HST        0.088303
     107 H11         22.6941    16.5480    28.7515 h2            1 HST        0.088303
     108 H12         23.6948    14.3582    28.4062 h2            1 HST        0.089103
     109 H13         22.8483    12.2101    28.3504 h2            1 HST        0.089103
     110 H14         20.6615    11.2182    27.8267 h2            1 HST        0.088303
     111 H15         19.2421    12.4377    27.5864 h2            1 HST        0.088303
     112 H16         20.5889     9.4486    26.1469 h2            1 HST        0.089103
     113 H17         19.4103     9.0230    24.1080 h2            1 HST        0.089103
     114 H18         17.1938    10.3270    23.2159 h2            1 HST        0.088303
     115 H19         17.4088    12.1571    23.2826 h2            1 HST        0.088303
     116 H20         18.2556     9.4790    20.9910 h2            1 HST        0.089103
     117 H21         18.1683    10.4269    18.6116 h2            1 HST        0.089103
     118 H22         16.6440    11.8462    17.8358 h2            1 HST        0.088303
     119 H23         15.8181    12.9867    18.9227 h2            1 HST        0.088303
     120 H24         17.9362    12.5209    16.0214 h2            1 HST        0.089103
     121 H25         17.9869    14.4176    14.7755 h2            1 HST        0.089103
     122 H26         16.9540    16.7152    14.9745 h2            1 HST        0.088303
     123 H27         16.3686    17.1522    16.5354 h2            1 HST        0.088303
     124 H28         18.8038    17.8826    14.1069 h2            1 HST        0.089103
     125 H29         18.3776    21.6992    17.1959 h2            1 HST        0.088303
     126 H30         19.5503    21.8566    15.9062 h2            1 HST        0.088303
     127 H31         19.6369    20.0050    14.3620 h2            1 HST        0.089103
     128 H32         21.6485    22.5662    16.7412 h2            1 HST        0.089103
     129 H33         22.1421    20.9523    14.9841 h2            1 HST        0.088303
     130 H34         23.2742    19.7534    15.4315 h2            1 HST        0.088303
     131 H35         24.7238    22.6337    19.9320 h2            1 HST        0.088303
     132 H36         25.4594    21.1209    19.3039 h2            1 HST        0.088303
     133 H37         26.1924    20.1624    24.6773 h2            1 HST        0.088303
     134 H38         26.5808    18.8786    23.4243 h2            1 HST        0.088303
     135 H39         25.4172    15.2186    27.4340 h2            1 HST        0.088303
     136 H40         26.1029    14.8054    25.8674 h2            1 HST        0.088303
     137 H41         24.0716    10.3223    25.6173 h2            1 HST        0.088303
     138 H42         22.8257    10.2527    26.8964 h2            1 HST        0.088303
     139 H43         21.8896     9.4979    21.4516 h2            1 HST        0.088303
     140 H44         20.4289     8.4749    21.8218 h2            1 HST        0.088303
     141 H45         21.2010    11.5241    17.2342 h2            1 HST        0.088303
     142 H46         19.4875    10.9937    17.0716 h2            1 HST        0.088303
     143 H47         21.3233    15.3013    14.4541 h2            1 HST        0.088303
     144 H48         19.6199    15.6165    13.9394 h2            1 HST        0.088303
@<TRIPOS>BOND
       1       94       95 1
       2       94       96 1
       3       93       94 1
       4       92       93 1
       5       91       92 1
       6       89       91 1
       7       89       90 1
       8       88       89 1
       9       87       88 1
      10       86       87 1
      11       84       86 1
      12       84       85 1
      13       83       84 1
      14       82       83 1
      15       81       82 1
      16       79       81 1
      17       79       80 1
      18       78       79 1
      19       77       78 1
      20       76       77 1
      21       74       76 1
      22       74       75 1
      23       73       74 1
      24       72       73 1
      25       71       72 1
      26       69       70 1
      27       69       71 1
      28       68       69 1
      29       67       68 1
      30       66       67 1
      31       64       65 1
      32       64       66 1
      33       63       64 1
      34       62       63 1
      35       61       62 1
      36       59       61 1
      37       59       60 1
      38       58       95 1
      39       57       58 1
      40       57       59 1
      41       56       57 1
      42       55       56 1
      43       54       95 1
      44       53       55 1
      45       52       53 1
      46       52       54 1
      47       50       51 1
      48       50       52 1
      49       49       54 1
      50       49       93 1
      51       48       50 1
      52       48       49 1
      53       47       48 1
      54       46       91 1
      55       45       47 1
      56       45       46 1
      57       43       45 1
      58       43       44 1
      59       42       46 1
      60       42       88 1
      61       41       43 1
      62       41       42 1
      63       40       41 1
      64       39       86 1
      65       38       40 1
      66       38       39 1
      67       36       38 1
      68       36       37 1
      69       35       39 1
      70       35       83 1
      71       34       36 1
      72       34       35 1
      73       33       34 1
      74       32       81 1
      75       31       33 1
      76       31       32 1
      77       29       30 1
      78       29       31 1
      79       28       32 1
      80       28       78 1
      81       27       29 1
      82       27       28 1
      83       26       27 1
      84       25       76 1
      85       24       26 1
      86       24       25 1
      87       22       23 1
      88       22       24 1
      89       21       25 1
      90       21       73 1
      91       20       22 1
      92       20       21 1
      93       19       20 1
      94       18       71 1
      95       17       18 1
      96       17       19 1
      97       15       16 1
      98       15       17 1
      99       14       18 1
     100       14       68 1
     101       13       15 1
     102       13       14 1
     103       12       13 1
     104       11       66 1
     105       10       11 1
     106       10       12 1
     107        8        9 1
     108        8       10 1
     109        7       11 1
     110        7       63 1
     111        6        7 1
     112        6        8 1
     113        5        6 1
     114        4       56 1
     115        4       61 1
     116        3        4 1
     117        3        5 1
     118        2       55 1
     119        2        3 1
     120        1        2 1
     121       92      143 1
     122       92      144 1
     123       87      141 1
     124       87      142 1
     125       82      139 1
     126       82      140 1
     127       77      137 1
     128       77      138 1
     129       72      135 1
     130       72      136 1
     131       67      133 1
     132       67      134 1
     133       62      131 1
     134       62      132 1
     135       58      129 1
     136       58      130 1
     137       56      128 1
     138       54      127 1
     139       53      125 1
     140       53      126 1
     141       49      124 1
     142       47      122 1
     143       47      123 1
     144       46      121 1
     145       42      120 1
     146       40      118 1
     147       40      119 1
     148       39      117 1
     149       35      116 1
     150       33      114 1
     151       33      115 1
     152       32      113 1
     153       28      112 1
     154       26      110 1
     155       26      111 1
     156       25      109 1
     157       21      108 1
     158       19      106 1
     159       19      107 1
     160       18      105 1
     161       14      104 1
     162       12      102 1
     163       12      103 1
     164       11      101 1
     165        7      100 1
     166        5       98 1
     167        5       99 1
     168        4       97 1
@<TRIPOS>SUBSTRUCTURE
       1 HST             1 RESIDUE    0 **** ROOT      0
