@<TRIPOS>MOLECULE
GST
17 16 1 0 1
SMALL
USER_CHARGES
@<TRIPOS>CRYSIN
   42.6798    43.1713    43.2844    90.0000    90.0000    90.0000  1  1
@<TRIPOS>ATOM
       1 C1           9.1612    27.5155    25.5758 c2            1 GST       -0.256996
       2 C2           8.0084    26.9437    25.0784 c2            1 GST       -0.131094
       3 C3           4.3575    28.3321    24.8436 c             1 GST        0.908306
       4 C4           7.2375    27.5083    23.9182 c3            1 GST       -0.061794
       5 C5           5.6301    28.9563    25.3815 c3            1 GST       -0.195794
       6 C6           6.8346    29.0109    24.3733 c3            1 GST       -0.047094
       7 O1           4.2335    27.1412    25.0318 o             1 GST       -0.853994
       8 O2           3.4367    29.0677    24.4022 o             1 GST       -0.853994
       9 H1           9.5617    27.0956    26.4960 ha            1 GST        0.098706
      10 H2           9.5667    28.4480    25.1892 ha            1 GST        0.098706
      11 H3           7.5224    26.0561    25.4777 ha            1 GST        0.109806
      12 H4           6.3613    26.9322    23.5964 hc            1 GST        0.045806
      13 H5           7.8884    27.5154    23.0353 hc            1 GST        0.045806
      14 H6           5.5249    29.9807    25.7592 hc            1 GST        0.021106
      15 H7           5.9350    28.3626    26.2520 hc            1 GST        0.021106
      16 H8           7.6968    29.5769    24.7468 hc            1 GST        0.025706
      17 H9           6.5296    29.5425    23.4636 hc            1 GST        0.025706
@<TRIPOS>BOND
       1        5        6 1
       2        4        6 1
       3        3        5 1
       4        3        7 1
       5        3        8 1
       6        2        4 1
       7        1        2 1
       8        6       16 1
       9        6       17 1
      10        5       14 1
      11        5       15 1
      12        4       12 1
      13        4       13 1
      14        2       11 1
      15        1        9 1
      16        1       10 1
@<TRIPOS>SUBSTRUCTURE
       1 GST             1 RESIDUE    0 **** ROOT      0
