@<TRIPOS>MOLECULE
HST
184 204 1 0 1
SMALL
USER_CHARGES
@<TRIPOS>CRYSIN
   42.8716    43.1756    43.3085    90.0000    90.0000    90.0000  1  1
@<TRIPOS>ATOM
       1 C1          18.1758    25.0218    18.5188 ca            1 HST       -0.079381
       2 C2          20.9552    24.5249    18.4961 ca            1 HST        0.094407
       3 C3          18.8849    24.9511    19.7441 ca            1 HST       -0.086793
       4 C4          18.9006    24.8891    17.3257 ca            1 HST        0.094407
       5 C5          20.2108    24.5935    17.3086 ca            1 HST       -0.145993
       6 C6          20.2746    24.6206    19.7300 ca            1 HST       -0.078493
       7 O1          22.2851    24.4622    18.3817 os            1 HST       -0.354893
       8 C7          21.0818    24.5431    20.9790 c3            1 HST        0.028407
       9 C8          23.0785    25.6915    18.5582 c3            1 HST        0.385107
      10 O2          23.4551    25.7631    19.9437 os            1 HST       -0.354893
      11 C9          22.6571    26.5113    20.7673 ca            1 HST        0.094407
      12 C10         21.5162    25.9832    21.3619 ca            1 HST       -0.078493
      13 C11         20.7819    26.9192    22.1226 ca            1 HST       -0.086793
      14 C12         23.0696    27.7663    20.9899 ca            1 HST       -0.145993
      15 C13         21.2246    28.2358    22.4898 ca            1 HST       -0.078493
      16 C14         22.4073    28.6153    21.8394 ca            1 HST        0.094407
      17 O3          22.9076    29.9383    21.8034 os            1 HST       -0.354893
      18 C15         20.4100    29.2814    23.2887 c3            1 HST        0.028407
      19 C16         19.4893    30.0406    22.2797 ca            1 HST       -0.078493
      20 C17         19.9549    31.1895    21.5991 ca            1 HST        0.094407
      21 C18         22.2142    30.8102    20.8978 c3            1 HST        0.385107
      22 O4          21.2471    31.5948    21.6294 os            1 HST       -0.354893
      23 O5          18.3451    25.0842    16.0253 os            1 HST       -0.354893
      24 C19         16.7022    25.2800    18.5184 c3            1 HST        0.028407
      25 C20         16.3732    26.7962    18.4706 ca            1 HST       -0.078493
      26 O6          16.6969    26.7728    16.0807 os            1 HST       -0.354893
      27 C21         16.4061    27.4490    17.2404 ca            1 HST        0.094407
      28 C22         19.0290    31.8919    20.7779 ca            1 HST       -0.145993
      29 C23         17.7429    31.4534    20.4864 ca            1 HST        0.094407
      30 C24         16.0967    28.8170    17.1973 ca            1 HST       -0.145993
      31 C25         15.8462    29.5143    18.3675 ca            1 HST        0.094407
      32 O7          17.0922    32.1958    19.5494 os            1 HST       -0.354893
      33 O8          15.7573    30.8733    18.2568 os            1 HST       -0.354893
      34 C26         16.9580    31.6247    18.2002 c3            1 HST        0.385107
      35 C27         16.2687    27.5250    19.6486 ca            1 HST       -0.086793
      36 C28         15.9683    28.8657    19.5886 ca            1 HST       -0.078493
      37 C29         18.1763    29.6074    22.0018 ca            1 HST       -0.086793
      38 C30         15.8810    29.7943    20.8579 c3            1 HST        0.028407
      39 C31         17.2422    30.3207    21.1793 ca            1 HST       -0.078493
      40 C32         18.0950    26.4817    15.6971 c3            1 HST        0.385107
      41 C33         19.7511    28.6647    24.5311 c3            1 HST       -0.059693
      42 C34         19.0153    29.6078    25.5823 c3            1 HST       -0.187693
      43 C35         18.6120    28.9980    26.8921 c             1 HST        0.906807
      44 O9          19.3768    28.2476    27.4678 o             1 HST       -0.865693
      45 C36         20.3890    23.7592    22.0606 c3            1 HST       -0.059693
      46 C37         20.1895    22.2116    21.7155 c3            1 HST       -0.187693
      47 C38         19.6096    21.3662    22.8443 c             1 HST        0.906807
      48 O10         18.4196    21.3894    23.1029 o             1 HST       -0.865693
      49 C39         15.8916    24.3648    19.4499 c3            1 HST       -0.059693
      50 C40         15.2832    23.1342    18.8100 c3            1 HST       -0.187693
      51 C41         16.3907    22.1423    18.4200 c             1 HST        0.906807
      52 O11         17.0161    22.2170    17.3825 o             1 HST       -0.865693
      53 C42         15.1907    29.1577    22.0897 c3            1 HST       -0.059693
      54 C43         14.9374    30.2040    23.1469 c3            1 HST       -0.187693
      55 C44         13.7242    29.8994    24.0591 c             1 HST        0.906807
      56 O12         13.4821    28.7579    24.4395 o             1 HST       -0.865693
      57 C45         24.3453    25.8344    17.7191 ca            1 HST       -0.077493
      58 C46         26.3438    26.4956    15.8741 ca            1 HST       -0.142593
      59 C47         25.5250    26.3907    18.2327 ca            1 HST       -0.129193
      60 C48         24.0938    25.7415    16.3467 ca            1 HST       -0.129193
      61 C49         25.0641    26.0760    15.4126 ca            1 HST        0.108807
      62 C50         26.5130    26.6705    17.2887 ca            1 HST        0.108807
      63 C51         18.3900    26.8734    14.2043 ca            1 HST       -0.077493
      64 C52         19.3047    27.7105    11.7003 ca            1 HST       -0.142593
      65 C53         17.8910    28.0619    13.6188 ca            1 HST       -0.129193
      66 C54         19.1913    26.0172    13.4042 ca            1 HST       -0.129193
      67 C55         19.6807    26.4855    12.2285 ca            1 HST        0.108807
      68 C56         18.3899    28.4871    12.4162 ca            1 HST        0.108807
      69 C57         16.9122    32.6377    17.0680 ca            1 HST       -0.077493
      70 C58         16.9268    34.6906    15.1770 ca            1 HST       -0.142593
      71 C59         17.6836    33.8338    17.3447 ca            1 HST       -0.129193
      72 C60         16.3018    32.4654    15.8571 ca            1 HST       -0.129193
      73 C61         16.2198    33.5058    14.9256 ca            1 HST        0.108807
      74 C62         17.6618    34.8127    16.3847 ca            1 HST        0.108807
      75 C63         23.1194    31.7833    20.0856 ca            1 HST       -0.077493
      76 C64         24.6597    33.2946    18.3345 ca            1 HST       -0.142593
      77 C65         22.6079    33.0247    19.5677 ca            1 HST       -0.129193
      78 C66         24.4195    31.3661    19.7108 ca            1 HST       -0.129193
      79 C67         25.2328    32.1547    18.9316 ca            1 HST        0.108807
      80 C68         23.3644    33.7291    18.6085 ca            1 HST        0.108807
      81 O13         20.5475    25.6716    11.5843 os            1 HST       -0.300893
      82 O14         15.4483    33.3921    13.7934 os            1 HST       -0.300893
      83 O15         18.5222    35.8998    16.4866 os            1 HST       -0.300893
      84 O16         24.7463    25.9842    14.1308 os            1 HST       -0.300893
      85 O17         27.6450    27.2707    17.7453 os            1 HST       -0.300893
      86 O18         22.8707    34.8920    18.0216 os            1 HST       -0.300893
      87 O19         26.5162    31.8111    18.7900 os            1 HST       -0.300893
      88 C69         15.4960    32.1762    13.0841 ca            1 HST        0.065707
      89 C70         15.5308    29.7442    11.6362 ca            1 HST       -0.108993
      90 C71         16.7063    31.5738    12.7381 ca            1 HST       -0.176193
      91 C72         14.2842    31.4897    12.6459 ca            1 HST       -0.108993
      92 C73         14.2762    30.3393    11.8895 ca            1 HST       -0.085593
      93 C74         16.7477    30.3143    12.0552 ca            1 HST        0.065707
      94 O20         17.9717    29.6883    11.8593 os            1 HST       -0.300893
      95 C75         23.7087    25.2274    13.5551 ca            1 HST        0.065707
      96 C76         21.7242    23.6753    12.2180 ca            1 HST       -0.108993
      97 C77         23.7897    23.8125    13.5108 ca            1 HST       -0.108993
      98 C78         22.6610    25.8136    12.7629 ca            1 HST       -0.176193
      99 C79         21.6428    25.0798    12.1458 ca            1 HST        0.065707
     100 C80         22.8139    23.0143    12.8375 ca            1 HST       -0.085593
     101 C81         19.4767    36.0222    17.4804 ca            1 HST        0.065707
     102 C82         21.4280    36.2188    19.5458 ca            1 HST       -0.108993
     103 C83         19.2318    36.7219    18.6196 ca            1 HST       -0.108993
     104 C84         20.7109    35.4305    17.3741 ca            1 HST       -0.176193
     105 C85         21.6908    35.4507    18.3603 ca            1 HST        0.065707
     106 C86         20.1236    36.8265    19.7008 ca            1 HST       -0.085593
     107 C87         19.7511    37.5678    21.0020 c             1 HST        0.919807
     108 O21         18.9755    38.5160    20.9870 o             1 HST       -0.835293
     109 C88         29.8928    29.6346    21.4618 c             1 HST        0.919807
     110 O22         30.5991    28.6528    21.7147 o             1 HST       -0.835293
     111 C89         22.7407    21.5053    13.0424 c             1 HST        0.919807
     112 O23         21.9871    20.7510    12.3930 o             1 HST       -0.835293
     113 O24         17.5044    29.2075    27.3520 o             1 HST       -0.865693
     114 O25         13.0502    30.8166    24.3985 o             1 HST       -0.865693
     115 O26         16.5935    21.2295    19.1769 o             1 HST       -0.865693
     116 C90         12.9772    29.7210    11.4471 c             1 HST        0.919807
     117 O27         13.0098    28.6846    10.8083 o             1 HST       -0.835293
     118 O28         29.9396    30.6985    22.1387 o             1 HST       -0.835293
     119 O29         20.3108    37.2495    22.0407 o             1 HST       -0.835293
     120 O30         11.9148    30.3232    11.5875 o             1 HST       -0.835293
     121 O31         23.4339    21.1105    13.9206 o             1 HST       -0.835293
     122 O32         20.3845    20.6959    23.5240 o             1 HST       -0.865693
     123 C91         27.7822    28.3832    18.5065 ca            1 HST        0.065707
     124 C92         28.1182    30.7054    20.1235 ca            1 HST       -0.108993
     125 C93         27.0060    29.5492    18.2881 ca            1 HST       -0.176193
     126 C94         28.7864    28.3924    19.5613 ca            1 HST       -0.108993
     127 C95         28.9529    29.5745    20.3379 ca            1 HST       -0.085593
     128 C96         27.1717    30.6566    19.0951 ca            1 HST        0.065707
     129 H1          18.3173    25.0812    20.6608 ha            1 HST        0.171207
     130 H2          20.7683    24.5521    16.3775 ha            1 HST        0.154707
     131 H3          21.9725    23.9127    20.8673 hc            1 HST        0.058007
     132 H4          22.5074    26.5666    18.2274 h2            1 HST        0.068607
     133 H5          19.8067    26.5729    22.4519 ha            1 HST        0.171207
     134 H6          24.0028    28.1151    20.5575 ha            1 HST        0.154707
     135 H7          21.0585    30.0369    23.7492 hc            1 HST        0.058007
     136 H8          21.5955    30.2477    20.1891 h2            1 HST        0.068607
     137 H9          16.3738    24.8695    17.5557 hc            1 HST        0.058007
     138 H10         19.3154    32.7766    20.2170 ha            1 HST        0.154707
     139 H11         16.1526    29.3094    16.2310 ha            1 HST        0.154707
     140 H12         17.8248    30.9778    18.0227 h2            1 HST        0.068607
     141 H13         16.2895    27.0178    20.6086 ha            1 HST        0.171207
     142 H14         17.8959    28.6816    22.4954 ha            1 HST        0.171207
     143 H15         15.2901    30.7105    20.7369 hc            1 HST        0.058007
     144 H16         18.7270    27.1421    16.3021 h2            1 HST        0.068607
     145 H17         19.0952    27.8590    24.1792 hc            1 HST        0.058607
     146 H18         20.4966    28.1978    25.1865 hc            1 HST        0.058607
     147 H19         19.5742    30.4797    25.9435 hc            1 HST        0.019207
     148 H20         18.0629    29.9046    25.1263 hc            1 HST        0.019207
     149 H21         19.4397    24.1154    22.4790 hc            1 HST        0.058607
     150 H22         21.1051    23.8126    22.8898 hc            1 HST        0.058607
     151 H23         19.5686    22.1232    20.8156 hc            1 HST        0.019207
     152 H24         21.1890    21.8335    21.4678 hc            1 HST        0.019207
     153 H25         16.5227    24.0479    20.2893 hc            1 HST        0.058607
     154 H26         15.0553    24.9467    19.8562 hc            1 HST        0.058607
     155 H27         14.5333    22.6714    19.4633 hc            1 HST        0.019207
     156 H28         14.5833    23.3319    17.9889 hc            1 HST        0.019207
     157 H29         14.2136    28.7431    21.8130 hc            1 HST        0.058607
     158 H30         15.7715    28.2729    22.3778 hc            1 HST        0.058607
     159 H31         15.8589    30.2695    23.7383 hc            1 HST        0.019207
     160 H32         14.8756    31.1753    22.6408 hc            1 HST        0.019207
     161 H33         27.0785    26.8261    15.1459 ha            1 HST        0.159907
     162 H34         25.6185    26.5809    19.2979 ha            1 HST        0.151007
     163 H35         23.1790    25.2283    16.0652 ha            1 HST        0.151007
     164 H36         19.6830    27.9467    10.7102 ha            1 HST        0.159907
     165 H37         17.1506    28.6967    14.0965 ha            1 HST        0.151007
     166 H38         19.5775    25.0806    13.7955 ha            1 HST        0.151007
     167 H39         16.8314    35.4618    14.4184 ha            1 HST        0.159907
     168 H40         18.2570    33.9479    18.2599 ha            1 HST        0.151007
     169 H41         15.7453    31.5458    15.7022 ha            1 HST        0.151007
     170 H42         25.1890    33.7532    17.5045 ha            1 HST        0.159907
     171 H43         21.6233    33.3929    19.8407 ha            1 HST        0.151007
     172 H44         24.7767    30.5050    20.2679 ha            1 HST        0.151007
     173 H45         15.5833    28.7609    11.1782 ha            1 HST        0.165507
     174 H46         17.6588    31.9947    13.0463 ha            1 HST        0.130107
     175 H47         13.3302    31.9426    12.8990 ha            1 HST        0.165507
     176 H48         20.9271    23.0996    11.7567 ha            1 HST        0.165507
     177 H49         24.6097    23.3432    14.0462 ha            1 HST        0.165507
     178 H50         22.7558    26.8785    12.5720 ha            1 HST        0.130107
     179 H51         22.1924    36.2202    20.3172 ha            1 HST        0.165507
     180 H52         18.2302    37.1386    18.6706 ha            1 HST        0.165507
     181 H53         20.9423    34.9257    16.4408 ha            1 HST        0.130107
     182 H54         28.2316    31.5657    20.7764 ha            1 HST        0.165507
     183 H55         26.3405    29.5180    17.4304 ha            1 HST        0.130107
     184 H56         29.4633    27.5457    19.6256 ha            1 HST        0.165507
@<TRIPOS>BOND
       1      126      127 1
       2      125      128 1
       3      124      127 1
       4      124      128 1
       5      123      125 1
       6      123      126 1
       7      116      117 1
       8      116      120 1
       9      111      112 1
      10      111      121 1
      11      109      110 1
      12      109      118 1
      13      109      127 1
      14      107      108 1
      15      107      119 1
      16      106      107 1
      17      104      105 1
      18      103      106 1
      19      102      105 1
      20      102      106 1
      21      101      103 1
      22      101      104 1
      23      100      111 1
      24       98       99 1
      25       97      100 1
      26       96       99 1
      27       96      100 1
      28       95       97 1
      29       95       98 1
      30       93       94 1
      31       92      116 1
      32       91       92 1
      33       90       93 1
      34       89       92 1
      35       89       93 1
      36       88       90 1
      37       88       91 1
      38       87      128 1
      39       86      105 1
      40       85      123 1
      41       84       95 1
      42       83      101 1
      43       82       88 1
      44       81       99 1
      45       80       86 1
      46       79       87 1
      47       78       79 1
      48       77       80 1
      49       76       79 1
      50       76       80 1
      51       75       77 1
      52       75       78 1
      53       74       83 1
      54       73       82 1
      55       72       73 1
      56       71       74 1
      57       70       73 1
      58       70       74 1
      59       69       71 1
      60       69       72 1
      61       68       94 1
      62       67       81 1
      63       66       67 1
      64       65       68 1
      65       64       67 1
      66       64       68 1
      67       63       65 1
      68       63       66 1
      69       62       85 1
      70       61       84 1
      71       60       61 1
      72       59       62 1
      73       58       61 1
      74       58       62 1
      75       57       59 1
      76       57       60 1
      77       55       56 1
      78       55      114 1
      79       54       55 1
      80       53       54 1
      81       51       52 1
      82       51      115 1
      83       50       51 1
      84       49       50 1
      85       47       48 1
      86       47      122 1
      87       46       47 1
      88       45       46 1
      89       43       44 1
      90       43      113 1
      91       42       43 1
      92       41       42 1
      93       40       63 1
      94       38       39 1
      95       38       53 1
      96       37       39 1
      97       36       38 1
      98       35       36 1
      99       34       69 1
     100       33       34 1
     101       32       34 1
     102       31       33 1
     103       31       36 1
     104       30       31 1
     105       29       32 1
     106       29       39 1
     107       28       29 1
     108       27       30 1
     109       26       27 1
     110       26       40 1
     111       25       27 1
     112       25       35 1
     113       24       25 1
     114       24       49 1
     115       23       40 1
     116       21       22 1
     117       21       75 1
     118       20       22 1
     119       20       28 1
     120       19       20 1
     121       19       37 1
     122       18       19 1
     123       18       41 1
     124       17       21 1
     125       16       17 1
     126       15       16 1
     127       15       18 1
     128       14       16 1
     129       13       15 1
     130       12       13 1
     131       11       12 1
     132       11       14 1
     133       10       11 1
     134        9       10 1
     135        9       57 1
     136        8       12 1
     137        8       45 1
     138        7        9 1
     139        6        8 1
     140        4        5 1
     141        4       23 1
     142        3        6 1
     143        2        5 1
     144        2        6 1
     145        2        7 1
     146        1        3 1
     147        1        4 1
     148        1       24 1
     149      126      184 1
     150      125      183 1
     151      124      182 1
     152      104      181 1
     153      103      180 1
     154      102      179 1
     155       98      178 1
     156       97      177 1
     157       96      176 1
     158       91      175 1
     159       90      174 1
     160       89      173 1
     161       78      172 1
     162       77      171 1
     163       76      170 1
     164       72      169 1
     165       71      168 1
     166       70      167 1
     167       66      166 1
     168       65      165 1
     169       64      164 1
     170       60      163 1
     171       59      162 1
     172       58      161 1
     173       54      159 1
     174       54      160 1
     175       53      157 1
     176       53      158 1
     177       50      155 1
     178       50      156 1
     179       49      153 1
     180       49      154 1
     181       46      151 1
     182       46      152 1
     183       45      149 1
     184       45      150 1
     185       42      147 1
     186       42      148 1
     187       41      145 1
     188       41      146 1
     189       40      144 1
     190       38      143 1
     191       37      142 1
     192       35      141 1
     193       34      140 1
     194       30      139 1
     195       28      138 1
     196       24      137 1
     197       21      136 1
     198       18      135 1
     199       14      134 1
     200       13      133 1
     201        9      132 1
     202        8      131 1
     203        5      130 1
     204        3      129 1
@<TRIPOS>SUBSTRUCTURE
       1 HST             1 RESIDUE    0 **** ROOT      0
