@<TRIPOS>MOLECULE
GST
19 18 1 0 1
SMALL
USER_CHARGES
@<TRIPOS>CRYSIN
   42.7860    43.2787    43.3100    90.0000    90.0000    90.0000  1  1
@<TRIPOS>ATOM
       1 C1          25.3826     3.3997    16.9106 c             1 GST        0.907712
       2 C2          29.2210     5.6402    15.5685 c3            1 GST       -0.083484
       3 C3          27.8256     7.2529    16.9476 c3            1 GST       -0.083484
       4 C4          26.2868     4.6503    17.1091 c3            1 GST       -0.194484
       5 C5          26.5602     5.3345    15.7113 c3            1 GST       -0.047484
       6 C6          27.7833     6.2616    15.7302 c3            1 GST       -0.073084
       7 O1          24.1945     3.5150    16.7398 o             1 GST       -0.854684
       8 O2          25.9593     2.3450    16.8130 o             1 GST       -0.854684
       9 H1          29.0950     4.6861    16.0948 hc            1 GST        0.021916
      10 H2          30.0927     6.2329    15.8719 hc            1 GST        0.021916
      11 H3          29.3115     5.4882    14.4859 hc            1 GST        0.021916
      12 H4          28.1716     6.7772    17.8734 hc            1 GST        0.021916
      13 H5          26.8704     7.7508    17.1545 hc            1 GST        0.021916
      14 H6          28.6111     8.0060    16.8097 hc            1 GST        0.021916
      15 H7          27.1386     4.5002    17.7836 hc            1 GST        0.020416
      16 H8          25.7267     5.3033    17.7897 hc            1 GST        0.020416
      17 H9          25.6388     5.8889    15.4948 hc            1 GST        0.025416
      18 H10         26.6551     4.6724    14.8420 hc            1 GST        0.025416
      19 H11         27.6431     6.9360    14.8766 hc            1 GST        0.060516
@<TRIPOS>BOND
       1        5        6 1
       2        4        5 1
       3        3        6 1
       4        2        6 1
       5        1        4 1
       6        1        7 1
       7        1        8 1
       8        6       19 1
       9        5       17 1
      10        5       18 1
      11        4       15 1
      12        4       16 1
      13        3       12 1
      14        3       13 1
      15        3       14 1
      16        2        9 1
      17        2       10 1
      18        2       11 1
@<TRIPOS>SUBSTRUCTURE
       1 GST             1 RESIDUE    0 **** ROOT      0
