@<TRIPOS>MOLECULE
GST
49 52 1 0 1
SMALL
USER_CHARGES
@<TRIPOS>CRYSIN
   40.7198    40.5594    40.4544    90.0000    90.0000    90.0000  1  1
@<TRIPOS>ATOM
       1 C1          17.6349    14.2967     9.7225 ca            1 GST       -0.117588
       2 C2          18.2849    13.2221     9.1366 ca            1 GST       -0.155594
       3 C3          19.6725    17.2767    11.7005 ca            1 GST       -0.240594
       4 C4          20.3962    14.0214    10.0052 ca            1 GST       -0.222794
       5 C5          18.3305    17.3392    11.4468 ca            1 GST        0.393806
       6 C6          19.7435    15.1708    10.5303 ca            1 GST       -0.089794
       7 C7          20.4886    16.2317    11.2149 ca            1 GST       -0.134794
       8 C8          18.3403    15.3121    10.3933 ca            1 GST        0.364606
       9 C9          19.6276    13.0881     9.3179 ca            1 GST        0.167506
      10 C10         24.6411    18.4808    16.3008 c2            1 GST       -0.158994
      11 C11         23.5905    17.9500    15.6730 c2            1 GST       -0.212394
      12 C12         24.0148    14.4585    14.0500 c3            1 GST       -0.098594
      13 C13         23.8117    16.7051    13.0745 c3            1 GST       -0.088494
      14 C14         22.6435    14.1436    13.6736 c3            1 GST        0.114206
      15 C15         21.9174    15.9555    15.2566 c3            1 GST        0.115206
      16 C16         23.4171    16.4195    15.4908 c3            1 GST       -0.039494
      17 C17         24.2833    15.9167    14.3066 c3            1 GST       -0.071194
      18 C18         22.2785    16.3896    12.8465 c3            1 GST        0.097006
      19 C19         21.5331    11.6483     8.8443 c3            1 GST        0.108506
      20 C20         22.0140    16.4256    11.3286 c3            1 GST        0.186806
      21 N1          17.6795    16.3972    10.7890 nb            1 GST       -0.604294
      22 N2          21.7541    15.3476    13.7944 n4            1 GST       -0.682794
      23 O1          22.4554    17.6313    10.8210 oh            1 GST       -0.571294
      24 O2          20.1653    12.0218     8.6985 os            1 GST       -0.315094
      25 H1          16.5905    14.5096     9.5145 ha            1 GST        0.172306
      26 H2          17.7238    12.4674     8.5934 ha            1 GST        0.166306
      27 H3          20.1610    18.1473    12.1280 ha            1 GST        0.137006
      28 H4          21.4807    13.9662    10.0173 ha            1 GST        0.138606
      29 H5          17.6972    18.1841    11.7135 h4            1 GST        0.043206
      30 H6          24.7229    19.5600    16.4111 ha            1 GST        0.131706
      31 H7          25.4766    17.9062    16.6950 ha            1 GST        0.131706
      32 H8          22.7663    18.5671    15.3219 ha            1 GST        0.131906
      33 H9          24.1569    13.9166    14.9931 hc            1 GST        0.086206
      34 H10         24.7426    14.0748    13.3246 hc            1 GST        0.086206
      35 H11         23.8793    17.7927    13.2003 hc            1 GST        0.091006
      36 H12         24.4559    16.4575    12.2219 hc            1 GST        0.091006
      37 H13         22.7012    13.8803    12.6164 hx            1 GST        0.101606
      38 H14         22.3121    13.2760    14.2460 hx            1 GST        0.101606
      39 H15         21.7300    15.2579    16.0743 hx            1 GST        0.099806
      40 H16         21.2657    16.8195    15.3948 hx            1 GST        0.099806
      41 H17         23.6637    15.9495    16.4508 hc            1 GST        0.088106
      42 H18         25.3601    16.1050    14.3966 hc            1 GST        0.111606
      43 H19         21.8375    17.3326    13.1727 hx            1 GST        0.098506
      44 H20         21.6473    10.7352     8.2474 h1            1 GST        0.055406
      45 H21         21.7025    11.3992     9.8990 h1            1 GST        0.055406
      46 H22         22.1857    12.4473     8.4715 h1            1 GST        0.055406
      47 H23         22.5777    15.5753    10.9255 h1            1 GST        0.095506
      48 H24         20.7937    15.0597    13.5569 hn            1 GST        0.458306
      49 H25         21.6701    17.9296    10.3299 ho            1 GST        0.427906
@<TRIPOS>BOND
       1       20       23 1
       2       19       24 1
       3       18       20 1
       4       18       22 1
       5       16       17 1
       6       15       16 1
       7       15       22 1
       8       14       22 1
       9       13       17 1
      10       13       18 1
      11       12       14 1
      12       12       17 1
      13       11       16 1
      14       10       11 1
      15        9       24 1
      16        8       21 1
      17        7       20 1
      18        6        7 1
      19        6        8 1
      20        5       21 1
      21        4        6 1
      22        4        9 1
      23        3        5 1
      24        3        7 1
      25        2        9 1
      26        1        2 1
      27        1        8 1
      28       23       49 1
      29       22       48 1
      30       20       47 1
      31       19       44 1
      32       19       45 1
      33       19       46 1
      34       18       43 1
      35       17       42 1
      36       16       41 1
      37       15       39 1
      38       15       40 1
      39       14       37 1
      40       14       38 1
      41       13       35 1
      42       13       36 1
      43       12       33 1
      44       12       34 1
      45       11       32 1
      46       10       30 1
      47       10       31 1
      48        5       29 1
      49        4       28 1
      50        3       27 1
      51        2       26 1
      52        1       25 1
@<TRIPOS>SUBSTRUCTURE
       1 GST             1 RESIDUE    0 **** ROOT      0
