@<TRIPOS>MOLECULE
HST
144 168 1 0 1
SMALL
USER_CHARGES
@<TRIPOS>CRYSIN
   40.7198    40.5594    40.4544    90.0000    90.0000    90.0000  1  1
@<TRIPOS>ATOM
       1 O1          18.6613    15.4023    16.2049 o             1 HST       -0.582429
       2 C1          19.2777    15.9584    17.0878 c             1 HST        0.803903
       3 N1          20.0636    15.3948    18.0105 n             1 HST       -0.507797
       4 C2          20.4661    16.1557    19.1207 c3            1 HST        0.235003
       5 C3          20.0131    13.9438    18.2180 c3            1 HST        0.293003
       6 N2          21.3521    13.3478    18.0663 n             1 HST       -0.507797
       7 C4          22.2961    13.1135    19.2140 c3            1 HST        0.235003
       8 C5          21.7072    12.4714    17.0065 c             1 HST        0.803903
       9 O2          20.9969    12.3646    16.0057 o             1 HST       -0.581997
      10 N3          22.8095    11.7261    17.3716 n             1 HST       -0.507797
      11 C6          23.2531    12.0436    18.7181 c3            1 HST        0.235003
      12 C7          23.3147    10.5936    16.6052 c3            1 HST        0.293003
      13 N4          24.3769    10.9633    15.6460 n             1 HST       -0.507797
      14 C8          25.8065    10.9441    16.0245 c3            1 HST        0.235003
      15 C9          24.1618    11.0336    14.2829 c             1 HST        0.803903
      16 O3          23.1051    10.8965    13.6790 o             1 HST       -0.581997
      17 N5          25.4101    11.2258    13.7204 n             1 HST       -0.507797
      18 C10         26.5139    11.1962    14.7242 c3            1 HST        0.235003
      19 C11         25.7904    11.1042    12.2858 c3            1 HST        0.293003
      20 N6          25.9239    12.4752    11.6847 n             1 HST       -0.507797
      21 C12         27.2249    13.0799    11.6051 c3            1 HST        0.235003
      22 C13         25.0333    13.0749    10.8630 c             1 HST        0.803903
      23 O4          23.9130    12.6809    10.6888 o             1 HST       -0.581997
      24 N7          25.6559    14.1024    10.2532 n             1 HST       -0.507797
      25 C14         27.0586    14.2460    10.6194 c3            1 HST        0.235003
      26 C15         25.2427    14.5658     8.9368 c3            1 HST        0.293003
      27 N8          24.9882    16.0845     8.9286 n             1 HST       -0.507797
      28 C16         26.0739    17.0011     8.8490 c3            1 HST        0.235003
      29 C17         23.8215    16.6170     8.4635 c             1 HST        0.803903
      30 O5          22.8080    15.9368     8.4594 o             1 HST       -0.581997
      31 N9          24.0296    17.8891     8.1210 n             1 HST       -0.507797
      32 C18         25.3934    18.2813     8.2969 c3            1 HST        0.235003
      33 C19         23.0992    18.8673     7.4847 c3            1 HST        0.293003
      34 N10         22.6935    19.9822     8.3346 n             1 HST       -0.507797
      35 C20         23.3628    21.2464     8.2261 c3            1 HST        0.235003
      36 C21         21.3934    20.0531     8.9018 c             1 HST        0.803903
      37 O6          20.5999    19.1221     9.0839 o             1 HST       -0.581997
      38 N11         21.1618    21.3232     9.2562 n             1 HST       -0.507797
      39 C22         22.2948    22.1522     8.8422 c3            1 HST        0.235003
      40 C23         19.8755    22.0027     9.4046 c3            1 HST        0.293003
      41 N12         19.6128    22.2082    10.8287 n             1 HST       -0.507797
      42 C24         20.0454    23.4223    11.4873 c3            1 HST        0.235003
      43 C25         18.6385    21.5373    11.5658 c             1 HST        0.803903
      44 O7          18.0028    20.5756    11.2199 o             1 HST       -0.581997
      45 N13         18.7030    22.0850    12.8251 n             1 HST       -0.507797
      46 C26         19.4373    23.3359    12.9020 c3            1 HST        0.235003
      47 C27         17.7647    21.8036    13.8958 c3            1 HST        0.293003
      48 N14         18.2923    21.0412    14.9997 n             1 HST       -0.507797
      49 C28         18.8558    21.5989    16.1544 c3            1 HST        0.235003
      50 C29         18.2222    19.6865    15.0484 c             1 HST        0.803903
      51 O8          17.8120    18.8951    14.2264 o             1 HST       -0.581997
      52 N15         18.6176    19.2996    16.3186 n             1 HST       -0.507797
      53 C30         18.0971    18.1622    17.0287 c3            1 HST        0.293003
      54 C31         19.0598    20.4557    17.0961 c3            1 HST        0.235003
      55 N16         19.2054    17.3011    17.4447 n             1 HST       -0.507797
      56 C32         19.9612    17.5297    18.6711 c3            1 HST        0.235003
      57 N17         21.1796    18.2766    18.4763 n             1 HST       -0.507797
      58 C33         21.1486    19.7828    18.4789 c3            1 HST        0.293003
      59 C34         22.2591    17.5899    18.9237 c             1 HST        0.803903
      60 O9          23.3629    18.0589    19.1271 o             1 HST       -0.581997
      61 N18         21.8919    16.3840    19.3242 n             1 HST       -0.507797
      62 C35         22.6813    15.4589    20.1862 c3            1 HST        0.293003
      63 N19         23.1825    14.2623    19.4666 n             1 HST       -0.507797
      64 C36         24.4828    14.0517    19.1510 c             1 HST        0.803903
      65 O10         25.4021    14.8389    19.3315 o             1 HST       -0.581997
      66 N20         24.5477    12.8216    18.6042 n             1 HST       -0.507797
      67 C37         25.7595    12.1566    18.2614 c3            1 HST        0.293003
      68 N21         26.0854    12.1003    16.8605 n             1 HST       -0.507797
      69 C38         26.7373    13.0717    16.1515 c             1 HST        0.803903
      70 O11         26.8666    14.2146    16.5113 o             1 HST       -0.581997
      71 N22         27.0626    12.5060    14.9230 n             1 HST       -0.507797
      72 C39         28.0996    12.9965    13.9862 c3            1 HST        0.293003
      73 N23         27.5227    13.7285    12.8479 n             1 HST       -0.507797
      74 C40         27.5298    15.1064    12.7483 c             1 HST        0.803903
      75 O12         27.9119    15.8755    13.6382 o             1 HST       -0.581997
      76 N24         27.3076    15.4558    11.4285 n             1 HST       -0.507797
      77 C41         27.6762    16.6694    10.7576 c3            1 HST        0.293003
      78 N25         26.5905    17.4250    10.1303 n             1 HST       -0.507797
      79 C42         26.4206    18.7947    10.2988 c             1 HST        0.803903
      80 O13         26.8746    19.5076    11.1958 o             1 HST       -0.581997
      81 N26         25.7342    19.3506     9.2552 n             1 HST       -0.507797
      82 C43         25.7257    20.7608     8.7904 c3            1 HST        0.293003
      83 N27         24.5218    21.4162     9.0994 n             1 HST       -0.507797
      84 C44         24.3085    22.3441    10.0599 c             1 HST        0.803903
      85 O14         25.1270    22.8231    10.7652 o             1 HST       -0.581997
      86 N28         22.9644    22.7196     9.9892 n             1 HST       -0.507797
      87 C45         22.4237    23.8602    10.6740 c3            1 HST        0.293003
      88 N29         21.4790    23.5774    11.7778 n             1 HST       -0.507797
      89 C46         21.7851    23.5801    13.1649 c             1 HST        0.803903
      90 O15         22.8429    23.8618    13.6118 o             1 HST       -0.581997
      91 N30         20.5553    23.3390    13.8471 n             1 HST       -0.507797
      92 C47         20.3881    23.4432    15.3254 c3            1 HST        0.293003
      93 N31         20.1853    22.1008    15.9008 n             1 HST       -0.507797
      94 C48         21.1254    21.4035    16.6042 c             1 HST        0.803903
      95 N32         20.5186    20.4197    17.3034 n             1 HST       -0.507797
      96 O16         22.3480    21.6667    16.6044 o             1 HST       -0.581997
      97 H1          20.0360    15.7068    20.0235 h2            1 HST        0.089103
      98 H2          19.2713    13.5431    17.5176 h2            1 HST        0.088303
      99 H3          19.6594    13.7705    19.2409 h2            1 HST        0.088303
     100 H4          21.8388    12.7982    20.1589 h2            1 HST        0.089103
     101 H5          23.3218    11.0868    19.2484 h2            1 HST        0.089103
     102 H6          22.4827    10.1418    16.0528 h2            1 HST        0.088303
     103 H7          23.7237     9.8054    17.2477 h2            1 HST        0.088303
     104 H8          26.0961     9.9708    16.4373 h2            1 HST        0.089103
     105 H9          27.2920    10.4564    14.5034 h2            1 HST        0.089103
     106 H10         25.0947    10.4592    11.7367 h2            1 HST        0.088303
     107 H11         26.7850    10.6437    12.2853 h2            1 HST        0.088303
     108 H12         27.9575    12.3211    11.3068 h2            1 HST        0.089103
     109 H13         27.6150    14.1557     9.6794 h2            1 HST        0.089103
     110 H14         26.1041    14.4999     8.2622 h2            1 HST        0.088303
     111 H15         24.4701    13.9492     8.4632 h2            1 HST        0.088303
     112 H16         26.8315    16.5696     8.1848 h2            1 HST        0.089103
     113 H17         25.8372    18.5099     7.3211 h2            1 HST        0.089103
     114 H18         23.4852    19.3425     6.5755 h2            1 HST        0.088303
     115 H19         22.1891    18.3162     7.2210 h2            1 HST        0.088303
     116 H20         23.5884    21.4695     7.1769 h2            1 HST        0.089103
     117 H21         21.9876    22.9762     8.1880 h2            1 HST        0.089103
     118 H22         19.9749    22.9443     8.8523 h2            1 HST        0.088303
     119 H23         19.0807    21.2926     9.1490 h2            1 HST        0.088303
     120 H24         19.7660    24.3065    10.9029 h2            1 HST        0.089103
     121 H25         18.8202    24.2047    13.1585 h2            1 HST        0.089103
     122 H26         17.2800    22.7252    14.2381 h2            1 HST        0.088303
     123 H27         16.8902    21.2458    13.5415 h2            1 HST        0.088303
     124 H28         18.1450    22.2340    16.6956 h2            1 HST        0.089103
     125 H29         17.4445    17.5717    16.3753 h2            1 HST        0.088303
     126 H30         17.4978    18.5338    17.8678 h2            1 HST        0.088303
     127 H31         18.4963    20.6105    18.0235 h2            1 HST        0.089103
     128 H32         19.3202    18.0367    19.4016 h2            1 HST        0.089103
     129 H33         20.4699    20.1493    19.2577 h2            1 HST        0.088303
     130 H34         22.0957    20.3072    18.6506 h2            1 HST        0.088303
     131 H35         22.0378    15.0851    20.9910 h2            1 HST        0.088303
     132 H36         23.5499    15.9595    20.6294 h2            1 HST        0.088303
     133 H37         25.6884    11.1152    18.5960 h2            1 HST        0.088303
     134 H38         26.5855    12.7070    18.7266 h2            1 HST        0.088303
     135 H39         28.6296    12.1620    13.5127 h2            1 HST        0.088303
     136 H40         28.8262    13.6674    14.4588 h2            1 HST        0.088303
     137 H41         28.2373    17.2662    11.4859 h2            1 HST        0.088303
     138 H42         28.3811    16.4579     9.9453 h2            1 HST        0.088303
     139 H43         26.6586    21.2498     9.0939 h2            1 HST        0.088303
     140 H44         25.7760    20.7551     7.6955 h2            1 HST        0.088303
     141 H45         23.2735    24.4419    11.0494 h2            1 HST        0.088303
     142 H46         21.9047    24.3934     9.8692 h2            1 HST        0.088303
     143 H47         21.2482    23.9570    15.7701 h2            1 HST        0.088303
     144 H48         19.4495    24.0059    15.3863 h2            1 HST        0.088303
@<TRIPOS>BOND
       1       94       95 1
       2       94       96 1
       3       93       94 1
       4       92       93 1
       5       91       92 1
       6       89       91 1
       7       89       90 1
       8       88       89 1
       9       87       88 1
      10       86       87 1
      11       84       86 1
      12       84       85 1
      13       83       84 1
      14       82       83 1
      15       81       82 1
      16       79       81 1
      17       79       80 1
      18       78       79 1
      19       77       78 1
      20       76       77 1
      21       74       76 1
      22       74       75 1
      23       73       74 1
      24       72       73 1
      25       71       72 1
      26       69       70 1
      27       69       71 1
      28       68       69 1
      29       67       68 1
      30       66       67 1
      31       64       65 1
      32       64       66 1
      33       63       64 1
      34       62       63 1
      35       61       62 1
      36       59       61 1
      37       59       60 1
      38       58       95 1
      39       57       58 1
      40       57       59 1
      41       56       57 1
      42       55       56 1
      43       54       95 1
      44       53       55 1
      45       52       53 1
      46       52       54 1
      47       50       51 1
      48       50       52 1
      49       49       54 1
      50       49       93 1
      51       48       50 1
      52       48       49 1
      53       47       48 1
      54       46       91 1
      55       45       47 1
      56       45       46 1
      57       43       45 1
      58       43       44 1
      59       42       46 1
      60       42       88 1
      61       41       43 1
      62       41       42 1
      63       40       41 1
      64       39       86 1
      65       38       40 1
      66       38       39 1
      67       36       38 1
      68       36       37 1
      69       35       39 1
      70       35       83 1
      71       34       36 1
      72       34       35 1
      73       33       34 1
      74       32       81 1
      75       31       33 1
      76       31       32 1
      77       29       30 1
      78       29       31 1
      79       28       32 1
      80       28       78 1
      81       27       29 1
      82       27       28 1
      83       26       27 1
      84       25       76 1
      85       24       26 1
      86       24       25 1
      87       22       23 1
      88       22       24 1
      89       21       25 1
      90       21       73 1
      91       20       22 1
      92       20       21 1
      93       19       20 1
      94       18       71 1
      95       17       18 1
      96       17       19 1
      97       15       16 1
      98       15       17 1
      99       14       18 1
     100       14       68 1
     101       13       15 1
     102       13       14 1
     103       12       13 1
     104       11       66 1
     105       10       11 1
     106       10       12 1
     107        8        9 1
     108        8       10 1
     109        7       11 1
     110        7       63 1
     111        6        7 1
     112        6        8 1
     113        5        6 1
     114        4       56 1
     115        4       61 1
     116        3        4 1
     117        3        5 1
     118        2       55 1
     119        2        3 1
     120        1        2 1
     121       92      143 1
     122       92      144 1
     123       87      141 1
     124       87      142 1
     125       82      139 1
     126       82      140 1
     127       77      137 1
     128       77      138 1
     129       72      135 1
     130       72      136 1
     131       67      133 1
     132       67      134 1
     133       62      131 1
     134       62      132 1
     135       58      129 1
     136       58      130 1
     137       56      128 1
     138       54      127 1
     139       53      125 1
     140       53      126 1
     141       49      124 1
     142       47      122 1
     143       47      123 1
     144       46      121 1
     145       42      120 1
     146       40      118 1
     147       40      119 1
     148       39      117 1
     149       35      116 1
     150       33      114 1
     151       33      115 1
     152       32      113 1
     153       28      112 1
     154       26      110 1
     155       26      111 1
     156       25      109 1
     157       21      108 1
     158       19      106 1
     159       19      107 1
     160       18      105 1
     161       14      104 1
     162       12      102 1
     163       12      103 1
     164       11      101 1
     165        7      100 1
     166        5       98 1
     167        5       99 1
     168        4       97 1
@<TRIPOS>SUBSTRUCTURE
       1 HST             1 RESIDUE    0 **** ROOT      0
