@<TRIPOS>MOLECULE
HST
184 204 1 0 1
SMALL
USER_CHARGES
@<TRIPOS>CRYSIN
   43.0029    43.2151    43.3286    90.0000    90.0000    90.0000  1  1
@<TRIPOS>ATOM
       1 C1          27.3806    26.7867    15.2768 ca            1 HST       -0.079381
       2 C2          26.6997    28.2221    17.5918 ca            1 HST        0.094407
       3 C3          25.9914    26.9277    15.5940 ca            1 HST       -0.086793
       4 C4          28.3811    27.4031    16.0384 ca            1 HST        0.094407
       5 C5          28.0260    28.0666    17.2669 ca            1 HST       -0.145993
       6 C6          25.6783    27.6815    16.7538 ca            1 HST       -0.078493
       7 O1          26.3333    29.1094    18.5983 os            1 HST       -0.354893
       8 C7          24.1803    27.9618    17.0845 c3            1 HST        0.028407
       9 C8          25.8606    30.4107    18.1113 c3            1 HST        0.385107
      10 O2          24.4726    30.4442    18.2150 os            1 HST       -0.354893
      11 C9          23.8010    30.4429    17.0644 ca            1 HST        0.094407
      12 C10         23.7104    29.2093    16.3637 ca            1 HST       -0.078493
      13 C11         23.3431    29.1868    15.0406 ca            1 HST       -0.086793
      14 C12         23.6058    31.7102    16.4483 ca            1 HST       -0.145993
      15 C13         23.0952    30.4229    14.3674 ca            1 HST       -0.078493
      16 C14         23.2379    31.6645    15.1375 ca            1 HST        0.094407
      17 O3          23.1749    32.9191    14.4991 os            1 HST       -0.354893
      18 C15         22.6788    30.5737    12.8757 c3            1 HST        0.028407
      19 C16         23.9100    30.7406    11.9949 ca            1 HST       -0.078493
      20 C17         24.3460    32.0248    11.6849 ca            1 HST        0.094407
      21 C18         24.2239    33.3443    13.7644 c3            1 HST        0.385107
      22 O4          23.9590    33.1522    12.3867 os            1 HST       -0.354893
      23 O5          29.7523    27.3434    15.7635 os            1 HST       -0.354893
      24 C19         27.8976    25.9792    14.0633 c3            1 HST        0.028407
      25 C20         28.1085    26.8810    12.8369 ca            1 HST       -0.078493
      26 O6          30.3319    27.2142    13.5093 os            1 HST       -0.354893
      27 C21         29.4068    27.4488    12.6848 ca            1 HST        0.094407
      28 C22         25.4943    32.1366    10.9138 ca            1 HST       -0.145993
      29 C23         26.0724    30.9913    10.2949 ca            1 HST        0.094407
      30 C24         29.7254    28.2740    11.5302 ca            1 HST       -0.145993
      31 C25         28.7156    28.5758    10.5886 ca            1 HST        0.094407
      32 O7          27.2659    31.1235     9.5695 os            1 HST       -0.354893
      33 O8          29.0505    29.5959     9.7931 os            1 HST       -0.354893
      34 C26         28.5554    30.8855    10.1632 c3            1 HST        0.385107
      35 C27         27.0951    27.2486    11.8936 ca            1 HST       -0.086793
      36 C28         27.4137    28.0632    10.7621 ca            1 HST       -0.078493
      37 C29         24.4870    29.5785    11.4281 ca            1 HST       -0.086793
      38 C30         26.2206    28.4753     9.7933 c3            1 HST        0.028407
      39 C31         25.5507    29.6542    10.4829 ca            1 HST       -0.078493
      40 C32         30.2911    28.0983    14.6824 c3            1 HST        0.385107
      41 C33         21.7517    29.4814    12.3701 c3            1 HST       -0.059693
      42 C34         20.4247    29.6309    13.1111 c3            1 HST       -0.187693
      43 C35         19.3926    28.6405    12.5678 c             1 HST        0.906807
      44 O9          19.0327    27.6595    13.1752 o             1 HST       -0.865693
      45 C36         23.1668    26.7507    16.8715 c3            1 HST       -0.059693
      46 C37         21.6451    27.0534    17.2653 c3            1 HST       -0.187693
      47 C38         20.8348    25.7911    17.6475 c             1 HST        0.906807
      48 O10         19.9376    25.4274    16.8418 o             1 HST       -0.865693
      49 C39         27.0517    24.7144    13.7095 c3            1 HST       -0.059693
      50 C40         27.6268    23.9438    12.5077 c3            1 HST       -0.187693
      51 C41         26.8600    22.6769    12.1721 c             1 HST        0.906807
      52 O11         26.9791    22.2769    11.0070 o             1 HST       -0.865693
      53 C42         25.2853    27.3656     9.2492 c3            1 HST       -0.059693
      54 C43         24.2361    27.9495     8.1677 c3            1 HST       -0.187693
      55 C44         23.4228    26.9528     7.4686 c             1 HST        0.906807
      56 O12         22.5298    27.3469     6.7952 o             1 HST       -0.865693
      57 C45         26.5507    31.5847    18.8153 ca            1 HST       -0.077493
      58 C46         27.8869    33.7407    19.9420 ca            1 HST       -0.142593
      59 C47         25.8454    32.7822    19.1846 ca            1 HST       -0.129193
      60 C48         27.9868    31.5472    18.9682 ca            1 HST       -0.129193
      61 C49         28.6430    32.6303    19.5683 ca            1 HST        0.108807
      62 C50         26.5167    33.8255    19.8729 ca            1 HST        0.108807
      63 C51         31.7024    28.6806    14.9804 ca            1 HST       -0.077493
      64 C52         34.2027    29.9324    15.4849 ca            1 HST       -0.142593
      65 C53         32.6066    28.8590    13.9481 ca            1 HST       -0.129193
      66 C54         32.0551    29.1888    16.2527 ca            1 HST       -0.129193
      67 C55         33.3162    29.7648    16.5296 ca            1 HST        0.108807
      68 C56         33.8754    29.4699    14.2170 ca            1 HST        0.108807
      69 C57         29.5823    31.9780    10.1128 ca            1 HST       -0.077493
      70 C58         31.2899    34.2404    10.0374 ca            1 HST       -0.142593
      71 C59         29.0994    33.2882     9.8531 ca            1 HST       -0.129193
      72 C60         30.9940    31.8194    10.1675 ca            1 HST       -0.129193
      73 C61         31.8630    32.9363    10.0837 ca            1 HST        0.108807
      74 C62         29.9379    34.3992     9.8952 ca            1 HST        0.108807
      75 C63         24.5058    34.8376    14.0897 ca            1 HST       -0.077493
      76 C64         24.8046    37.5930    14.2729 ca            1 HST       -0.142593
      77 C65         25.1753    35.5636    13.0936 ca            1 HST       -0.129193
      78 C66         24.0068    35.5378    15.1785 ca            1 HST       -0.129193
      79 C67         24.2488    36.8995    15.3609 ca            1 HST        0.108807
      80 C68         25.3686    36.9355    13.1752 ca            1 HST        0.108807
      81 O13         33.6251    30.1868    17.7939 os            1 HST       -0.300893
      82 O14         33.1612    32.8029    10.0295 os            1 HST       -0.300893
      83 O15         29.4727    35.6737     9.4765 os            1 HST       -0.300893
      84 O16         29.9990    32.6849    19.7226 os            1 HST       -0.300893
      85 O17         25.9061    35.0049    20.2044 os            1 HST       -0.300893
      86 O18         26.0013    37.6433    12.0766 os            1 HST       -0.300893
      87 O19         23.9360    37.5023    16.5651 os            1 HST       -0.300893
      88 C69         33.8110    31.6207    10.3158 ca            1 HST        0.065707
      89 C70         35.1931    29.2969    10.8955 ca            1 HST       -0.108993
      90 C71         33.8305    31.2057    11.6383 ca            1 HST       -0.176193
      91 C72         34.3937    30.9193     9.2893 ca            1 HST       -0.108993
      92 C73         35.0562    29.7387     9.5452 ca            1 HST       -0.085593
      93 C74         34.5846    30.0111    11.9573 ca            1 HST        0.065707
      94 O20         34.8169    29.6012    13.2408 os            1 HST       -0.300893
      95 C75         30.7836    31.5301    19.6486 ca            1 HST        0.065707
      96 C76         32.6892    29.5349    19.8504 ca            1 HST       -0.108993
      97 C77         30.8215    30.6789    20.7924 ca            1 HST       -0.108993
      98 C78         31.6300    31.2684    18.5892 ca            1 HST       -0.176193
      99 C79         32.6012    30.3523    18.7340 ca            1 HST        0.065707
     100 C80         31.7770    29.6599    20.9149 ca            1 HST       -0.085593
     101 C81         28.1399    36.0831     9.4748 ca            1 HST        0.065707
     102 C82         25.4210    36.9407     9.7590 ca            1 HST       -0.108993
     103 C83         27.2685    36.0210     8.4125 ca            1 HST       -0.108993
     104 C84         27.6864    36.6859    10.6748 ca            1 HST       -0.176193
     105 C85         26.3556    37.0953    10.8475 ca            1 HST        0.065707
     106 C86         25.9544    36.4463     8.5668 ca            1 HST       -0.085593
     107 C87         25.1021    36.4677     7.2747 c             1 HST        0.919807
     108 O21         25.4128    35.7030     6.3667 o             1 HST       -0.835293
     109 C88         20.9079    35.2488    19.5427 c             1 HST        0.919807
     110 O22         20.6507    34.3453    20.3378 o             1 HST       -0.835293
     111 C89         31.7953    28.7077    22.1544 c             1 HST        0.919807
     112 O23         32.5585    27.7337    22.1883 o             1 HST       -0.835293
     113 O24         18.8618    28.9812    11.5333 o             1 HST       -0.865693
     114 O25         23.3627    25.8309     7.9065 o             1 HST       -0.865693
     115 O26         25.9848    22.1165    12.8177 o             1 HST       -0.865693
     116 C90         35.6764    28.9914     8.4303 c             1 HST        0.919807
     117 O27         36.4668    28.1059     8.6982 o             1 HST       -0.835293
     118 O28         19.9908    35.8422    18.9551 o             1 HST       -0.835293
     119 O29         24.0638    37.0586     7.2292 o             1 HST       -0.835293
     120 O30         35.2662    29.1921     7.2720 o             1 HST       -0.835293
     121 O31         30.9471    28.8910    22.9956 o             1 HST       -0.835293
     122 O32         21.2807    25.0975    18.5902 o             1 HST       -0.865693
     123 C91         24.7702    35.5010    19.5395 ca            1 HST        0.065707
     124 C92         22.4231    36.3009    17.9875 ca            1 HST       -0.108993
     125 C93         24.8911    36.3321    18.3982 ca            1 HST       -0.176193
     126 C94         23.4085    35.1589    19.8552 ca            1 HST       -0.108993
     127 C95         22.2893    35.5238    19.1229 ca            1 HST       -0.085593
     128 C96         23.7218    36.7359    17.7050 ca            1 HST        0.065707
     129 H1          25.2371    26.5353    14.9184 ha            1 HST        0.171207
     130 H2          28.7566    28.6032    17.8649 ha            1 HST        0.154707
     131 H3          23.9511    28.1977    18.1309 hc            1 HST        0.058007
     132 H4          26.2215    30.5173    17.0818 h2            1 HST        0.068607
     133 H5          23.3497    28.2676    14.4624 ha            1 HST        0.171207
     134 H6          23.7501    32.6625    16.9500 ha            1 HST        0.154707
     135 H7          22.1088    31.5027    12.7532 hc            1 HST        0.058007
     136 H8          25.1035    32.7350    14.0020 h2            1 HST        0.068607
     137 H9          28.8348    25.5040    14.3778 hc            1 HST        0.058007
     138 H10         25.9003    33.1372    10.7981 ha            1 HST        0.154707
     139 H11         30.7025    28.7216    11.3741 ha            1 HST        0.154707
     140 H12         28.2744    30.8535    11.2222 h2            1 HST        0.068607
     141 H13         26.0518    26.9571    11.9703 ha            1 HST        0.171207
     142 H14         24.1280    28.5931    11.7098 ha            1 HST        0.171207
     143 H15         26.7533    28.8266     8.9011 hc            1 HST        0.058007
     144 H16         29.5853    28.9043    14.4507 h2            1 HST        0.068607
     145 H17         21.4237    29.6360    11.3349 hc            1 HST        0.058607
     146 H18         22.3161    28.5434    12.4390 hc            1 HST        0.058607
     147 H19         20.5852    29.6457    14.1961 hc            1 HST        0.019207
     148 H20         20.0043    30.6390    13.0098 hc            1 HST        0.019207
     149 H21         23.6722    25.9524    17.4287 hc            1 HST        0.058607
     150 H22         23.2305    26.2534    15.8959 hc            1 HST        0.058607
     151 H23         21.6350    27.7007    18.1508 hc            1 HST        0.019207
     152 H24         21.2040    27.4869    16.3594 hc            1 HST        0.019207
     153 H25         27.0503    24.0260    14.5634 hc            1 HST        0.058607
     154 H26         25.9916    24.9668    13.5840 hc            1 HST        0.058607
     155 H27         27.5805    24.6024    11.6318 hc            1 HST        0.019207
     156 H28         28.6681    23.6873    12.7378 hc            1 HST        0.019207
     157 H29         25.8859    26.6529     8.6708 hc            1 HST        0.058607
     158 H30         24.8367    26.8186    10.0875 hc            1 HST        0.058607
     159 H31         23.6235    28.7600     8.5812 hc            1 HST        0.019207
     160 H32         24.9400    28.3835     7.4470 hc            1 HST        0.019207
     161 H33         28.3197    34.5954    20.4534 ha            1 HST        0.159907
     162 H34         24.7761    32.8341    19.0026 ha            1 HST        0.151007
     163 H35         28.5069    30.6444    18.6621 ha            1 HST        0.151007
     164 H36         35.0457    30.5834    15.6966 ha            1 HST        0.159907
     165 H37         32.4259    28.3444    13.0089 ha            1 HST        0.151007
     166 H38         31.3719    28.9839    17.0717 ha            1 HST        0.151007
     167 H39         31.9353    35.1131    10.0693 ha            1 HST        0.159907
     168 H40         28.0256    33.4474     9.8221 ha            1 HST        0.151007
     169 H41         31.3910    30.8362    10.4022 ha            1 HST        0.151007
     170 H42         24.9897    38.6624    14.3114 ha            1 HST        0.159907
     171 H43         25.6054    35.0881    12.2171 ha            1 HST        0.151007
     172 H44         23.5218    34.9458    15.9491 ha            1 HST        0.151007
     173 H45         35.8049    28.4225    11.0967 ha            1 HST        0.165507
     174 H46         33.4492    31.8440    12.4298 ha            1 HST        0.130107
     175 H47         34.5172    31.2082     8.2497 ha            1 HST        0.165507
     176 H48         33.4542    28.7655    19.8979 ha            1 HST        0.165507
     177 H49         30.1454    30.9576    21.5953 ha            1 HST        0.165507
     178 H50         31.6072    31.9228    17.7228 ha            1 HST        0.130107
     179 H51         24.3847    37.2519     9.8524 ha            1 HST        0.165507
     180 H52         27.6965    35.6608     7.4817 ha            1 HST        0.165507
     181 H53         28.2802    36.6767    11.5840 ha            1 HST        0.130107
     182 H54         21.5036    36.6856    17.5563 ha            1 HST        0.165507
     183 H55         25.8979    36.5071    18.0305 ha            1 HST        0.130107
     184 H56         23.3365    34.6650    20.8197 ha            1 HST        0.165507
@<TRIPOS>BOND
       1      126      127 1
       2      125      128 1
       3      124      127 1
       4      124      128 1
       5      123      125 1
       6      123      126 1
       7      116      117 1
       8      116      120 1
       9      111      112 1
      10      111      121 1
      11      109      110 1
      12      109      118 1
      13      109      127 1
      14      107      108 1
      15      107      119 1
      16      106      107 1
      17      104      105 1
      18      103      106 1
      19      102      105 1
      20      102      106 1
      21      101      103 1
      22      101      104 1
      23      100      111 1
      24       98       99 1
      25       97      100 1
      26       96       99 1
      27       96      100 1
      28       95       97 1
      29       95       98 1
      30       93       94 1
      31       92      116 1
      32       91       92 1
      33       90       93 1
      34       89       92 1
      35       89       93 1
      36       88       90 1
      37       88       91 1
      38       87      128 1
      39       86      105 1
      40       85      123 1
      41       84       95 1
      42       83      101 1
      43       82       88 1
      44       81       99 1
      45       80       86 1
      46       79       87 1
      47       78       79 1
      48       77       80 1
      49       76       79 1
      50       76       80 1
      51       75       77 1
      52       75       78 1
      53       74       83 1
      54       73       82 1
      55       72       73 1
      56       71       74 1
      57       70       73 1
      58       70       74 1
      59       69       71 1
      60       69       72 1
      61       68       94 1
      62       67       81 1
      63       66       67 1
      64       65       68 1
      65       64       67 1
      66       64       68 1
      67       63       65 1
      68       63       66 1
      69       62       85 1
      70       61       84 1
      71       60       61 1
      72       59       62 1
      73       58       61 1
      74       58       62 1
      75       57       59 1
      76       57       60 1
      77       55       56 1
      78       55      114 1
      79       54       55 1
      80       53       54 1
      81       51       52 1
      82       51      115 1
      83       50       51 1
      84       49       50 1
      85       47       48 1
      86       47      122 1
      87       46       47 1
      88       45       46 1
      89       43       44 1
      90       43      113 1
      91       42       43 1
      92       41       42 1
      93       40       63 1
      94       38       39 1
      95       38       53 1
      96       37       39 1
      97       36       38 1
      98       35       36 1
      99       34       69 1
     100       33       34 1
     101       32       34 1
     102       31       33 1
     103       31       36 1
     104       30       31 1
     105       29       32 1
     106       29       39 1
     107       28       29 1
     108       27       30 1
     109       26       27 1
     110       26       40 1
     111       25       27 1
     112       25       35 1
     113       24       25 1
     114       24       49 1
     115       23       40 1
     116       21       22 1
     117       21       75 1
     118       20       22 1
     119       20       28 1
     120       19       20 1
     121       19       37 1
     122       18       19 1
     123       18       41 1
     124       17       21 1
     125       16       17 1
     126       15       16 1
     127       15       18 1
     128       14       16 1
     129       13       15 1
     130       12       13 1
     131       11       12 1
     132       11       14 1
     133       10       11 1
     134        9       10 1
     135        9       57 1
     136        8       12 1
     137        8       45 1
     138        7        9 1
     139        6        8 1
     140        4        5 1
     141        4       23 1
     142        3        6 1
     143        2        5 1
     144        2        6 1
     145        2        7 1
     146        1        3 1
     147        1        4 1
     148        1       24 1
     149      126      184 1
     150      125      183 1
     151      124      182 1
     152      104      181 1
     153      103      180 1
     154      102      179 1
     155       98      178 1
     156       97      177 1
     157       96      176 1
     158       91      175 1
     159       90      174 1
     160       89      173 1
     161       78      172 1
     162       77      171 1
     163       76      170 1
     164       72      169 1
     165       71      168 1
     166       70      167 1
     167       66      166 1
     168       65      165 1
     169       64      164 1
     170       60      163 1
     171       59      162 1
     172       58      161 1
     173       54      159 1
     174       54      160 1
     175       53      157 1
     176       53      158 1
     177       50      155 1
     178       50      156 1
     179       49      153 1
     180       49      154 1
     181       46      151 1
     182       46      152 1
     183       45      149 1
     184       45      150 1
     185       42      147 1
     186       42      148 1
     187       41      145 1
     188       41      146 1
     189       40      144 1
     190       38      143 1
     191       37      142 1
     192       35      141 1
     193       34      140 1
     194       30      139 1
     195       28      138 1
     196       24      137 1
     197       21      136 1
     198       18      135 1
     199       14      134 1
     200       13      133 1
     201        9      132 1
     202        8      131 1
     203        5      130 1
     204        3      129 1
@<TRIPOS>SUBSTRUCTURE
       1 HST             1 RESIDUE    0 **** ROOT      0
