@<TRIPOS>MOLECULE
GST
19 18 1 0 1
SMALL
USER_CHARGES
@<TRIPOS>CRYSIN
   43.0055    42.8527    43.1078    90.0000    90.0000    90.0000  1  1
@<TRIPOS>ATOM
       1 C1           6.6988    13.2492    24.8197 c             1 GST        0.907712
       2 C2          11.3371    14.0313    24.8731 c3            1 GST       -0.083484
       3 C3          10.2033    15.7217    26.4978 c3            1 GST       -0.083484
       4 C4           8.1416    13.3932    25.2068 c3            1 GST       -0.194484
       5 C5           8.8481    14.6457    24.5633 c3            1 GST       -0.047484
       6 C6          10.2256    15.1258    25.0587 c3            1 GST       -0.073084
       7 O1           6.3395    13.6020    23.7065 o             1 GST       -0.854684
       8 O2           6.0464    12.5206    25.5270 o             1 GST       -0.854684
       9 H1          11.1261    13.2063    25.5646 hc            1 GST        0.021916
      10 H2          12.2821    14.5376    25.1050 hc            1 GST        0.021916
      11 H3          11.3619    13.5358    23.8948 hc            1 GST        0.021916
      12 H4          11.1073    16.2943    26.7391 hc            1 GST        0.021916
      13 H5          10.1302    14.9609    27.2845 hc            1 GST        0.021916
      14 H6           9.3720    16.4210    26.6499 hc            1 GST        0.021916
      15 H7           8.7493    12.5201    24.9391 hc            1 GST        0.020416
      16 H8           8.1050    13.5043    26.2975 hc            1 GST        0.020416
      17 H9           8.1616    15.4907    24.6971 hc            1 GST        0.025416
      18 H10          9.0030    14.5753    23.4797 hc            1 GST        0.025416
      19 H11         10.4224    15.9519    24.3644 hc            1 GST        0.060516
@<TRIPOS>BOND
       1        5        6 1
       2        4        5 1
       3        3        6 1
       4        2        6 1
       5        1        4 1
       6        1        7 1
       7        1        8 1
       8        6       19 1
       9        5       17 1
      10        5       18 1
      11        4       15 1
      12        4       16 1
      13        3       12 1
      14        3       13 1
      15        3       14 1
      16        2        9 1
      17        2       10 1
      18        2       11 1
@<TRIPOS>SUBSTRUCTURE
       1 GST             1 RESIDUE    0 **** ROOT      0
