@<TRIPOS>MOLECULE
GST
17 16 1 0 1
SMALL
USER_CHARGES
@<TRIPOS>CRYSIN
   43.0029    43.2151    43.3286    90.0000    90.0000    90.0000  1  1
@<TRIPOS>ATOM
       1 C1          27.4963    31.3502    14.2848 c2            1 GST       -0.256996
       2 C2          27.9194    32.5939    13.9180 c2            1 GST       -0.131094
       3 C3          31.7837    34.5629    15.6243 c             1 GST        0.908306
       4 C4          29.2911    32.9947    13.7254 c3            1 GST       -0.061794
       5 C5          31.6224    33.1358    14.9700 c3            1 GST       -0.195794
       6 C6          30.1720    32.5265    14.9012 c3            1 GST       -0.047094
       7 O1          31.9348    34.7010    16.8280 o             1 GST       -0.853994
       8 O2          31.9621    35.4813    14.9146 o             1 GST       -0.853994
       9 H1          26.4223    31.2027    14.3766 ha            1 GST        0.098706
      10 H2          28.2598    30.5754    14.2975 ha            1 GST        0.098706
      11 H3          27.3551    33.5035    14.1124 ha            1 GST        0.109806
      12 H4          29.3772    34.0855    13.8018 hc            1 GST        0.045806
      13 H5          29.7610    32.8007    12.7534 hc            1 GST        0.045806
      14 H6          32.0734    33.2193    13.9736 hc            1 GST        0.021106
      15 H7          32.3104    32.5315    15.5739 hc            1 GST        0.021106
      16 H8          29.6875    32.6351    15.8793 hc            1 GST        0.025706
      17 H9          30.4256    31.4814    14.6851 hc            1 GST        0.025706
@<TRIPOS>BOND
       1        5        6 1
       2        4        6 1
       3        3        5 1
       4        3        7 1
       5        3        8 1
       6        2        4 1
       7        1        2 1
       8        6       16 1
       9        6       17 1
      10        5       14 1
      11        5       15 1
      12        4       12 1
      13        4       13 1
      14        2       11 1
      15        1        9 1
      16        1       10 1
@<TRIPOS>SUBSTRUCTURE
       1 GST             1 RESIDUE    0 **** ROOT      0
