@<TRIPOS>MOLECULE
HST
184 204 1 0 1
SMALL
USER_CHARGES
@<TRIPOS>CRYSIN
   42.7144    43.2063    43.3195    90.0000    90.0000    90.0000  1  1
@<TRIPOS>ATOM
       1 C1          24.5387    22.4535    19.3764 ca            1 HST       -0.079381
       2 C2          25.6926    23.2461    16.9392 ca            1 HST        0.094407
       3 C3          24.6247    23.8418    19.0442 ca            1 HST       -0.086793
       4 C4          24.9372    21.4787    18.5119 ca            1 HST        0.094407
       5 C5          25.4656    21.8875    17.2597 ca            1 HST       -0.145993
       6 C6          25.1679    24.2693    17.8249 ca            1 HST       -0.078493
       7 O1          26.1540    23.6276    15.6979 os            1 HST       -0.354893
       8 C7          25.3524    25.7207    17.4718 c3            1 HST        0.028407
       9 C8          25.1873    24.1524    14.7038 c3            1 HST        0.385107
      10 O2          25.2098    25.5392    14.6443 os            1 HST       -0.354893
      11 C9          24.1712    26.2467    15.2206 ca            1 HST        0.094407
      12 C10         24.1570    26.3080    16.6419 ca            1 HST       -0.078493
      13 C11         22.9823    26.7104    17.2388 ca            1 HST       -0.086793
      14 C12         23.1382    26.6987    14.4245 ca            1 HST       -0.145993
      15 C13         21.8579    27.1104    16.4819 ca            1 HST       -0.078493
      16 C14         21.9389    27.0557    15.0805 ca            1 HST        0.094407
      17 O3          20.7942    26.9755    14.3756 os            1 HST       -0.354893
      18 C15         20.5204    27.4900    17.1164 c3            1 HST        0.028407
      19 C16         19.7385    26.2323    17.5102 ca            1 HST       -0.078493
      20 C17         18.7804    25.7980    16.5671 ca            1 HST        0.094407
      21 C18         19.9857    25.8043    14.5054 c3            1 HST        0.385107
      22 O4          18.8486    26.1711    15.2240 os            1 HST       -0.354893
      23 O5          24.7609    20.1678    18.7276 os            1 HST       -0.354893
      24 C19         24.0031    21.9999    20.7548 c3            1 HST        0.028407
      25 C20         22.4546    21.8444    20.6015 ca            1 HST       -0.078493
      26 O6          22.8572    19.5499    19.7963 os            1 HST       -0.354893
      27 C21         22.0051    20.6003    20.1372 ca            1 HST        0.094407
      28 C22         17.9011    24.7620    16.9392 ca            1 HST       -0.145993
      29 C23         18.0581    24.1973    18.1858 ca            1 HST        0.094407
      30 C24         20.6813    20.4159    19.8501 ca            1 HST       -0.145993
      31 C25         19.7332    21.4485    19.9745 ca            1 HST        0.094407
      32 O7          17.2881    23.0256    18.3713 os            1 HST       -0.354893
      33 O8          18.4918    21.1947    19.5063 os            1 HST       -0.354893
      34 C26         18.0745    21.7448    18.2551 c3            1 HST        0.385107
      35 C27         21.5446    22.9256    20.5310 ca            1 HST       -0.086793
      36 C28         20.1319    22.7397    20.4374 ca            1 HST       -0.078493
      37 C29         19.9556    25.5681    18.7078 ca            1 HST       -0.086793
      38 C30         19.1339    23.8930    20.4068 c3            1 HST        0.028407
      39 C31         19.0202    24.5933    19.0794 ca            1 HST       -0.078493
      40 C32         23.4590    19.7074    18.4954 c3            1 HST        0.385107
      41 C33         20.8092    28.5198    18.2276 c3            1 HST       -0.059693
      42 C34         19.5011    29.3283    18.4572 c3            1 HST       -0.187693
      43 C35         19.5796    30.4242    19.4678 c             1 HST        0.906807
      44 O9          18.5582    31.0145    19.8470 o             1 HST       -0.865693
      45 C36         25.7837    26.6533    18.6561 c3            1 HST       -0.059693
      46 C37         26.1617    28.1062    18.2422 c3            1 HST       -0.187693
      47 C38         27.1699    28.1189    17.1277 c             1 HST        0.906807
      48 O10         26.8253    28.5940    16.0544 o             1 HST       -0.865693
      49 C39         24.5050    22.8754    21.9188 c3            1 HST       -0.059693
      50 C40         24.0900    22.1398    23.2525 c3            1 HST       -0.187693
      51 C41         23.8839    23.1546    24.3684 c             1 HST        0.906807
      52 O11         22.8371    23.7988    24.4743 o             1 HST       -0.865693
      53 C42         19.3305    24.8712    21.6175 c3            1 HST       -0.059693
      54 C43         18.1167    25.8096    21.6699 c3            1 HST       -0.187693
      55 C44         18.4135    26.9147    22.7189 c             1 HST        0.906807
      56 O12         19.3154    26.8171    23.5943 o             1 HST       -0.865693
      57 C45         25.5160    23.5248    13.4166 ca            1 HST       -0.077493
      58 C46         25.5846    22.3458    10.8143 ca            1 HST       -0.142593
      59 C47         25.4736    24.3130    12.2078 ca            1 HST       -0.129193
      60 C48         25.5434    22.1160    13.2898 ca            1 HST       -0.129193
      61 C49         25.5738    21.5592    11.9989 ca            1 HST        0.108807
      62 C50         25.5492    23.7402    10.9326 ca            1 HST        0.108807
      63 C51         23.5258    18.3263    17.7773 ca            1 HST       -0.077493
      64 C52         23.5055    15.9502    16.3745 ca            1 HST       -0.142593
      65 C53         22.5145    17.3583    17.9708 ca            1 HST       -0.129193
      66 C54         24.5156    18.1274    16.7653 ca            1 HST       -0.129193
      67 C55         24.5069    16.8655    16.1017 ca            1 HST        0.108807
      68 C56         22.4882    16.2134    17.2612 ca            1 HST        0.108807
      69 C57         17.1383    20.7720    17.5588 ca            1 HST       -0.077493
      70 C58         15.6499    18.9708    16.0616 ca            1 HST       -0.142593
      71 C59         16.0512    21.2112    16.7666 ca            1 HST       -0.129193
      72 C60         17.3934    19.3542    17.6607 ca            1 HST       -0.129193
      73 C61         16.6971    18.4470    16.8230 ca            1 HST        0.108807
      74 C62         15.3316    20.2904    16.0051 ca            1 HST        0.108807
      75 C63         19.5495    25.2310    13.1622 ca            1 HST       -0.077493
      76 C64         18.7983    24.1242    10.6751 ca            1 HST       -0.142593
      77 C65         18.3996    24.4219    13.0653 ca            1 HST       -0.129193
      78 C66         20.3367    25.4791    11.9882 ca            1 HST       -0.129193
      79 C67         19.9443    24.9262    10.7478 ca            1 HST        0.108807
      80 C68         18.0256    23.8655    11.8052 ca            1 HST        0.108807
      81 O13         25.3626    16.5656    15.0238 os            1 HST       -0.300893
      82 O14         17.2160    17.1925    16.5688 os            1 HST       -0.300893
      83 O15         14.3715    20.7725    15.0451 os            1 HST       -0.300893
      84 O16         25.5444    20.1733    11.7394 os            1 HST       -0.300893
      85 O17         25.4028    24.4165     9.7685 os            1 HST       -0.300893
      86 O18         16.9358    23.0008    11.8021 os            1 HST       -0.300893
      87 O19         20.6539    25.1207     9.5950 os            1 HST       -0.300893
      88 C69         18.0506    16.5741    17.4636 ca            1 HST        0.065707
      89 C70         19.9486    15.3971    19.1612 ca            1 HST       -0.108993
      90 C71         19.2951    16.1980    16.9680 ca            1 HST       -0.176193
      91 C72         17.7266    16.3577    18.8331 ca            1 HST       -0.108993
      92 C73         18.6474    15.6982    19.6570 ca            1 HST       -0.085593
      93 C74         20.2747    15.6637    17.8568 ca            1 HST        0.065707
      94 O20         21.4933    15.2514    17.3940 os            1 HST       -0.300893
      95 C75         26.1613    19.3125    12.6049 ca            1 HST        0.065707
      96 C76         27.4021    17.7120    14.5313 ca            1 HST       -0.108993
      97 C77         27.4853    19.5359    12.9558 ca            1 HST       -0.108993
      98 C78         25.4022    18.4407    13.3711 ca            1 HST       -0.176193
      99 C79         26.0150    17.5995    14.3267 ca            1 HST        0.065707
     100 C80         28.1112    18.8112    13.9855 ca            1 HST       -0.085593
     101 C81         14.6120    21.8930    14.2956 ca            1 HST        0.065707
     102 C82         15.1968    24.1796    12.9582 ca            1 HST       -0.108993
     103 C83         13.9421    23.0791    14.6733 ca            1 HST       -0.108993
     104 C84         15.5799    21.8147    13.3312 ca            1 HST       -0.176193
     105 C85         15.9212    23.0167    12.6885 ca            1 HST        0.065707
     106 C86         14.2317    24.2842    13.9852 ca            1 HST       -0.085593
     107 C87         13.5796    25.5958    14.3425 c             1 HST        0.919807
     108 O21         12.9670    25.6585    15.3975 o             1 HST       -0.835293
     109 C88         23.7197    28.7601     8.2694 c             1 HST        0.919807
     110 O22         24.8574    29.1532     7.8975 o             1 HST       -0.835293
     111 C89         29.5083    19.1877    14.4116 c             1 HST        0.919807
     112 O23         29.9894    18.6753    15.4061 o             1 HST       -0.835293
     113 O24         20.6430    30.9916    19.6275 o             1 HST       -0.865693
     114 O25         17.7029    27.8816    22.7929 o             1 HST       -0.865693
     115 O26         24.8513    23.4035    25.0715 o             1 HST       -0.865693
     116 C90         18.2930    15.5595    21.1171 c             1 HST        0.919807
     117 O27         19.0330    14.8862    21.8761 o             1 HST       -0.835293
     118 O28         22.8865    29.6277     8.3292 o             1 HST       -0.835293
     119 O29         13.9138    26.6342    13.7736 o             1 HST       -0.835293
     120 O30         17.2259    16.1082    21.5579 o             1 HST       -0.835293
     121 O31         30.1318    20.0438    13.8183 o             1 HST       -0.835293
     122 O32         28.3287    27.7050    17.3220 o             1 HST       -0.865693
     123 C91         24.2886    25.1699     9.5181 ca            1 HST        0.065707
     124 C92         22.1489    26.9013     9.0623 ca            1 HST       -0.108993
     125 C93         22.9682    24.7238     9.7013 ca            1 HST       -0.176193
     126 C94         24.5026    26.5249     9.1885 ca            1 HST       -0.108993
     127 C95         23.4660    27.3865     8.8187 ca            1 HST       -0.085593
     128 C96         21.9373    25.6094     9.5389 ca            1 HST        0.065707
     129 H1          24.2086    24.6012    19.6996 ha            1 HST        0.171207
     130 H2          25.6435    21.1197    16.5125 ha            1 HST        0.154707
     131 H3          26.2826    25.6553    16.8942 hc            1 HST        0.058007
     132 H4          24.1425    23.9140    14.9340 h2            1 HST        0.068607
     133 H5          22.7953    26.5680    18.2990 ha            1 HST        0.171207
     134 H6          23.0473    26.5665    13.3504 ha            1 HST        0.154707
     135 H7          19.9801    28.1486    16.4255 hc            1 HST        0.058007
     136 H8          20.5684    25.0630    15.0642 h2            1 HST        0.068607
     137 H9          24.4285    21.0194    21.0014 hc            1 HST        0.058007
     138 H10         17.2170    24.3840    16.1852 ha            1 HST        0.154707
     139 H11         20.3136    19.4576    19.4955 ha            1 HST        0.154707
     140 H12         18.9382    21.7811    17.5811 h2            1 HST        0.068607
     141 H13         21.9271    23.9317    20.6757 ha            1 HST        0.171207
     142 H14         20.7478    25.8294    19.4032 ha            1 HST        0.171207
     143 H15         18.1870    23.3756    20.6040 hc            1 HST        0.058007
     144 H16         22.9425    20.4128    17.8343 h2            1 HST        0.068607
     145 H17         21.0756    28.1453    19.2236 hc            1 HST        0.058607
     146 H18         21.5079    29.2711    17.8397 hc            1 HST        0.058607
     147 H19         19.2293    29.9282    17.5800 hc            1 HST        0.019207
     148 H20         18.7098    28.6060    18.6924 hc            1 HST        0.019207
     149 H21         26.6783    26.1859    19.0856 hc            1 HST        0.058607
     150 H22         24.9128    26.6878    19.3221 hc            1 HST        0.058607
     151 H23         25.2039    28.5654    17.9685 hc            1 HST        0.019207
     152 H24         26.4644    28.7489    19.0780 hc            1 HST        0.019207
     153 H25         25.6018    22.8601    21.9251 hc            1 HST        0.058607
     154 H26         24.1251    23.8953    21.7822 hc            1 HST        0.058607
     155 H27         23.1461    21.6174    23.0545 hc            1 HST        0.019207
     156 H28         24.7861    21.3350    23.5188 hc            1 HST        0.019207
     157 H29         19.4704    24.3327    22.5629 hc            1 HST        0.058607
     158 H30         20.2475    25.4102    21.3495 hc            1 HST        0.058607
     159 H31         17.9082    26.3676    20.7489 hc            1 HST        0.019207
     160 H32         17.3174    25.1753    22.0722 hc            1 HST        0.019207
     161 H33         25.5834    21.9253     9.8130 ha            1 HST        0.159907
     162 H34         25.4068    25.3970    12.2057 ha            1 HST        0.151007
     163 H35         25.4043    21.5366    14.1977 ha            1 HST        0.151007
     164 H36         23.4765    14.9914    15.8653 ha            1 HST        0.159907
     165 H37         21.6728    17.5573    18.6276 ha            1 HST        0.151007
     166 H38         25.2740    18.8811    16.5751 ha            1 HST        0.151007
     167 H39         15.2255    18.2748    15.3440 ha            1 HST        0.159907
     168 H40         15.8795    22.2833    16.7432 ha            1 HST        0.151007
     169 H41         18.2430    18.9945    18.2335 ha            1 HST        0.151007
     170 H42         18.4175    23.8044     9.7096 ha            1 HST        0.159907
     171 H43         17.7748    24.2185    13.9300 ha            1 HST        0.151007
     172 H44         21.2377    26.0844    12.0215 ha            1 HST        0.151007
     173 H45         20.7325    15.0532    19.8295 ha            1 HST        0.165507
     174 H46         19.4905    16.3153    15.9062 ha            1 HST        0.130107
     175 H47         16.7534    16.6517    19.2148 ha            1 HST        0.165507
     176 H48         27.7482    17.0747    15.3396 ha            1 HST        0.165507
     177 H49         28.0186    20.3342    12.4482 ha            1 HST        0.165507
     178 H50         24.3478    18.3982    13.1147 ha            1 HST        0.130107
     179 H51         15.4088    25.0505    12.3451 ha            1 HST        0.165507
     180 H52         13.1690    23.1183    15.4350 ha            1 HST        0.165507
     181 H53         16.1639    20.9264    13.1089 ha            1 HST        0.130107
     182 H54         21.3289    27.5635     8.8006 ha            1 HST        0.165507
     183 H55         22.8456    23.6622     9.8948 ha            1 HST        0.130107
     184 H56         25.5431    26.8328     9.1421 ha            1 HST        0.165507
@<TRIPOS>BOND
       1      126      127 1
       2      125      128 1
       3      124      127 1
       4      124      128 1
       5      123      125 1
       6      123      126 1
       7      116      117 1
       8      116      120 1
       9      111      112 1
      10      111      121 1
      11      109      110 1
      12      109      118 1
      13      109      127 1
      14      107      108 1
      15      107      119 1
      16      106      107 1
      17      104      105 1
      18      103      106 1
      19      102      105 1
      20      102      106 1
      21      101      103 1
      22      101      104 1
      23      100      111 1
      24       98       99 1
      25       97      100 1
      26       96       99 1
      27       96      100 1
      28       95       97 1
      29       95       98 1
      30       93       94 1
      31       92      116 1
      32       91       92 1
      33       90       93 1
      34       89       92 1
      35       89       93 1
      36       88       90 1
      37       88       91 1
      38       87      128 1
      39       86      105 1
      40       85      123 1
      41       84       95 1
      42       83      101 1
      43       82       88 1
      44       81       99 1
      45       80       86 1
      46       79       87 1
      47       78       79 1
      48       77       80 1
      49       76       79 1
      50       76       80 1
      51       75       77 1
      52       75       78 1
      53       74       83 1
      54       73       82 1
      55       72       73 1
      56       71       74 1
      57       70       73 1
      58       70       74 1
      59       69       71 1
      60       69       72 1
      61       68       94 1
      62       67       81 1
      63       66       67 1
      64       65       68 1
      65       64       67 1
      66       64       68 1
      67       63       65 1
      68       63       66 1
      69       62       85 1
      70       61       84 1
      71       60       61 1
      72       59       62 1
      73       58       61 1
      74       58       62 1
      75       57       59 1
      76       57       60 1
      77       55       56 1
      78       55      114 1
      79       54       55 1
      80       53       54 1
      81       51       52 1
      82       51      115 1
      83       50       51 1
      84       49       50 1
      85       47       48 1
      86       47      122 1
      87       46       47 1
      88       45       46 1
      89       43       44 1
      90       43      113 1
      91       42       43 1
      92       41       42 1
      93       40       63 1
      94       38       39 1
      95       38       53 1
      96       37       39 1
      97       36       38 1
      98       35       36 1
      99       34       69 1
     100       33       34 1
     101       32       34 1
     102       31       33 1
     103       31       36 1
     104       30       31 1
     105       29       32 1
     106       29       39 1
     107       28       29 1
     108       27       30 1
     109       26       27 1
     110       26       40 1
     111       25       27 1
     112       25       35 1
     113       24       25 1
     114       24       49 1
     115       23       40 1
     116       21       22 1
     117       21       75 1
     118       20       22 1
     119       20       28 1
     120       19       20 1
     121       19       37 1
     122       18       19 1
     123       18       41 1
     124       17       21 1
     125       16       17 1
     126       15       16 1
     127       15       18 1
     128       14       16 1
     129       13       15 1
     130       12       13 1
     131       11       12 1
     132       11       14 1
     133       10       11 1
     134        9       10 1
     135        9       57 1
     136        8       12 1
     137        8       45 1
     138        7        9 1
     139        6        8 1
     140        4        5 1
     141        4       23 1
     142        3        6 1
     143        2        5 1
     144        2        6 1
     145        2        7 1
     146        1        3 1
     147        1        4 1
     148        1       24 1
     149      126      184 1
     150      125      183 1
     151      124      182 1
     152      104      181 1
     153      103      180 1
     154      102      179 1
     155       98      178 1
     156       97      177 1
     157       96      176 1
     158       91      175 1
     159       90      174 1
     160       89      173 1
     161       78      172 1
     162       77      171 1
     163       76      170 1
     164       72      169 1
     165       71      168 1
     166       70      167 1
     167       66      166 1
     168       65      165 1
     169       64      164 1
     170       60      163 1
     171       59      162 1
     172       58      161 1
     173       54      159 1
     174       54      160 1
     175       53      157 1
     176       53      158 1
     177       50      155 1
     178       50      156 1
     179       49      153 1
     180       49      154 1
     181       46      151 1
     182       46      152 1
     183       45      149 1
     184       45      150 1
     185       42      147 1
     186       42      148 1
     187       41      145 1
     188       41      146 1
     189       40      144 1
     190       38      143 1
     191       37      142 1
     192       35      141 1
     193       34      140 1
     194       30      139 1
     195       28      138 1
     196       24      137 1
     197       21      136 1
     198       18      135 1
     199       14      134 1
     200       13      133 1
     201        9      132 1
     202        8      131 1
     203        5      130 1
     204        3      129 1
@<TRIPOS>SUBSTRUCTURE
       1 HST             1 RESIDUE    0 **** ROOT      0
