@<TRIPOS>MOLECULE
GST
17 16 1 0 1
SMALL
USER_CHARGES
@<TRIPOS>CRYSIN
   42.6523    43.1436    43.2565    90.0000    90.0000    90.0000  1  1
@<TRIPOS>ATOM
       1 C1          23.2503    22.7428    12.7470 c2            1 GST       -0.256996
       2 C2          24.0530    23.7752    12.4453 c2            1 GST       -0.131094
       3 C3          25.8547    26.7173     9.8184 c             1 GST        0.908306
       4 C4          24.2429    24.3921    11.1023 c3            1 GST       -0.061794
       5 C5          24.3499    26.4809     9.7687 c3            1 GST       -0.195794
       6 C6          23.6970    25.7580    10.9087 c3            1 GST       -0.047094
       7 O1          26.5521    26.4441     8.8311 o             1 GST       -0.853994
       8 O2          26.2378    27.3295    10.7656 o             1 GST       -0.853994
       9 H1          23.1068    22.3656    13.7573 ha            1 GST        0.098706
      10 H2          22.6543    22.2357    11.9913 ha            1 GST        0.098706
      11 H3          24.4790    24.4114    13.2182 ha            1 GST        0.109806
      12 H4          23.9009    23.6739    10.3471 hc            1 GST        0.045806
      13 H5          25.3234    24.4855    10.9385 hc            1 GST        0.045806
      14 H6          23.8851    27.4721     9.8363 hc            1 GST        0.021106
      15 H7          23.9846    26.0704     8.8193 hc            1 GST        0.021106
      16 H8          22.6616    25.5739    10.5967 hc            1 GST        0.025706
      17 H9          23.7199    26.3604    11.8251 hc            1 GST        0.025706
@<TRIPOS>BOND
       1        5        6 1
       2        4        6 1
       3        3        5 1
       4        3        7 1
       5        3        8 1
       6        2        4 1
       7        1        2 1
       8        6       16 1
       9        6       17 1
      10        5       14 1
      11        5       15 1
      12        4       12 1
      13        4       13 1
      14        2       11 1
      15        1        9 1
      16        1       10 1
@<TRIPOS>SUBSTRUCTURE
       1 GST             1 RESIDUE    0 **** ROOT      0
