@<TRIPOS>MOLECULE
GST
49 52 1 0 1
SMALL
USER_CHARGES
@<TRIPOS>CRYSIN
   40.6836    40.5233    40.4184    90.0000    90.0000    90.0000  1  1
@<TRIPOS>ATOM
       1 C1          21.4210    15.4260    32.0541 ca            1 GST       -0.117588
       2 C2          22.5155    16.2738    32.2220 ca            1 GST       -0.155594
       3 C3          18.0631    16.6213    30.0063 ca            1 GST       -0.240594
       4 C4          21.4362    17.9589    30.8399 ca            1 GST       -0.222794
       5 C5          18.1958    15.2929    30.5837 ca            1 GST        0.393806
       6 C6          20.3476    17.0515    30.7015 ca            1 GST       -0.089794
       7 C7          19.1690    17.4556    30.0248 ca            1 GST       -0.134794
       8 C8          20.3851    15.7698    31.2759 ca            1 GST        0.364606
       9 C9          22.5281    17.5951    31.7089 ca            1 GST        0.167506
      10 C10         14.1567    19.8571    30.4922 c2            1 GST       -0.158994
      11 C11         14.7134    21.0399    30.8680 c2            1 GST       -0.212394
      12 C12         18.3287    22.2901    31.8133 c3            1 GST       -0.098594
      13 C13         17.6145    21.0630    29.7533 c3            1 GST       -0.088494
      14 C14         18.8989    20.8540    32.2011 c3            1 GST        0.114206
      15 C15         16.6307    20.0305    32.3928 c3            1 GST        0.115206
      16 C16         15.9638    21.3329    31.7169 c3            1 GST       -0.039494
      17 C17         17.0774    22.0917    30.8567 c3            1 GST       -0.071194
      18 C18         17.7723    19.6059    30.2818 c3            1 GST        0.097006
      19 C19         24.8967    17.8525    32.0378 c3            1 GST        0.108506
      20 C20         18.8937    18.8025    29.4533 c3            1 GST        0.186806
      21 N1          19.3771    14.8866    31.1045 nb            1 GST       -0.604294
      22 N2          18.0000    19.7026    31.8120 n4            1 GST       -0.682794
      23 O1          18.3185    18.6870    28.1118 oh            1 GST       -0.571294
      24 O2          23.6452    18.3906    31.7255 os            1 GST       -0.315094
      25 H1          21.3970    14.4560    32.5419 ha            1 GST        0.172306
      26 H2          23.3570    15.9084    32.8030 ha            1 GST        0.166306
      27 H3          17.1610    16.9642    29.5084 ha            1 GST        0.137006
      28 H4          21.5241    18.9164    30.3350 ha            1 GST        0.138606
      29 H5          17.4219    14.5268    30.5832 h4            1 GST        0.043206
      30 H6          13.3399    19.8657    29.7737 ha            1 GST        0.131706
      31 H7          14.6509    18.9137    30.7141 ha            1 GST        0.131706
      32 H8          14.2067    21.9393    30.5245 ha            1 GST        0.131906
      33 H9          17.9370    22.7593    32.7241 hc            1 GST        0.086206
      34 H10         19.0789    22.9231    31.3236 hc            1 GST        0.086206
      35 H11         16.8145    21.0517    29.0029 hc            1 GST        0.091006
      36 H12         18.4940    21.5331    29.2967 hc            1 GST        0.091006
      37 H13         19.8197    20.6543    31.6510 hx            1 GST        0.101606
      38 H14         19.1219    20.8153    33.2684 hx            1 GST        0.101606
      39 H15         16.6894    20.1793    33.4720 hx            1 GST        0.099806
      40 H16         15.9410    19.1934    32.2746 hx            1 GST        0.099806
      41 H17         15.7778    22.0763    32.5017 hc            1 GST        0.088106
      42 H18         16.7634    23.0723    30.4785 hc            1 GST        0.111606
      43 H19         16.7878    19.1666    30.1140 hx            1 GST        0.098506
      44 H20         25.6793    18.6150    32.1340 h1            1 GST        0.055406
      45 H21         25.1573    17.0106    31.3847 h1            1 GST        0.055406
      46 H22         24.8195    17.5169    33.0792 h1            1 GST        0.055406
      47 H23         19.7842    19.4319    29.3345 h1            1 GST        0.095506
      48 H24         18.3432    18.7824    32.1234 hn            1 GST        0.458306
      49 H25         18.7149    17.8588    27.7898 ho            1 GST        0.427906
@<TRIPOS>BOND
       1       20       23 1
       2       19       24 1
       3       18       20 1
       4       18       22 1
       5       16       17 1
       6       15       16 1
       7       15       22 1
       8       14       22 1
       9       13       17 1
      10       13       18 1
      11       12       14 1
      12       12       17 1
      13       11       16 1
      14       10       11 1
      15        9       24 1
      16        8       21 1
      17        7       20 1
      18        6        7 1
      19        6        8 1
      20        5       21 1
      21        4        6 1
      22        4        9 1
      23        3        5 1
      24        3        7 1
      25        2        9 1
      26        1        2 1
      27        1        8 1
      28       23       49 1
      29       22       48 1
      30       20       47 1
      31       19       44 1
      32       19       45 1
      33       19       46 1
      34       18       43 1
      35       17       42 1
      36       16       41 1
      37       15       39 1
      38       15       40 1
      39       14       37 1
      40       14       38 1
      41       13       35 1
      42       13       36 1
      43       12       33 1
      44       12       34 1
      45       11       32 1
      46       10       30 1
      47       10       31 1
      48        5       29 1
      49        4       28 1
      50        3       27 1
      51        2       26 1
      52        1       25 1
@<TRIPOS>SUBSTRUCTURE
       1 GST             1 RESIDUE    0 **** ROOT      0
