@<TRIPOS>MOLECULE
HST
144 168 1 0 1
SMALL
USER_CHARGES
@<TRIPOS>CRYSIN
   40.6836    40.5233    40.4184    90.0000    90.0000    90.0000  1  1
@<TRIPOS>ATOM
       1 O1          21.3610    22.3573    34.2934 o             1 HST       -0.582429
       2 C1          20.8698    23.4641    34.0833 c             1 HST        0.803903
       3 N1          21.2469    24.4151    33.1757 n             1 HST       -0.507797
       4 C2          20.6067    25.7362    33.3248 c3            1 HST        0.235003
       5 C3          22.3733    24.2172    32.3324 c3            1 HST        0.293003
       6 N2          21.8834    23.8056    30.9469 n             1 HST       -0.507797
       7 C4          21.5991    24.6643    29.8382 c3            1 HST        0.235003
       8 C5          21.9896    22.4807    30.4791 c             1 HST        0.803903
       9 O2          22.3393    21.4911    31.1112 o             1 HST       -0.581997
      10 N3          21.6521    22.5116    29.1157 n             1 HST       -0.507797
      11 C6          21.4612    23.8396    28.5929 c3            1 HST        0.235003
      12 C7          22.1968    21.4977    28.2389 c3            1 HST        0.293003
      13 N4          21.4152    20.9731    27.0600 n             1 HST       -0.507797
      14 C8          21.0236    21.9126    25.9644 c3            1 HST        0.235003
      15 C9          21.1102    19.6681    26.8228 c             1 HST        0.803903
      16 O3          21.3939    18.7257    27.5517 o             1 HST       -0.581997
      17 N5          20.5610    19.5591    25.5801 n             1 HST       -0.507797
      18 C10         20.5549    20.8689    24.8929 c3            1 HST        0.235003
      19 C11         20.2323    18.3062    24.8230 c3            1 HST        0.293003
      20 N6          18.7914    18.0635    24.9270 n             1 HST       -0.507797
      21 C12         17.9595    18.4184    23.7560 c3            1 HST        0.235003
      22 C13         18.2580    17.1439    25.7560 c             1 HST        0.803903
      23 O4          18.9492    16.4867    26.5959 o             1 HST       -0.581997
      24 N7          17.0291    16.7718    25.2408 n             1 HST       -0.507797
      25 C14         16.7306    17.5303    24.0147 c3            1 HST        0.235003
      26 C15         16.4535    15.4825    25.3836 c3            1 HST        0.293003
      27 N8          15.2241    15.5322    26.1539 n             1 HST       -0.507797
      28 C16         13.9683    15.9792    25.5303 c3            1 HST        0.235003
      29 C17         15.0684    15.0053    27.4002 c             1 HST        0.803903
      30 O5          15.9077    14.4573    28.0586 o             1 HST       -0.581997
      31 N9          13.7565    15.0375    27.7201 n             1 HST       -0.507797
      32 C18         12.9515    15.6316    26.6170 c3            1 HST        0.235003
      33 C19         13.0938    14.4732    28.8905 c3            1 HST        0.293003
      34 N10         12.8836    15.4508    29.9646 n             1 HST       -0.507797
      35 C20         11.6369    16.0925    30.1369 c3            1 HST        0.235003
      36 C21         13.6850    15.6681    31.0566 c             1 HST        0.803903
      37 O6          14.7221    15.0632    31.2367 o             1 HST       -0.581997
      38 N11         13.0462    16.5326    31.9171 n             1 HST       -0.507797
      39 C22         11.6828    16.7648    31.4570 c3            1 HST        0.235003
      40 C23         13.4357    16.5553    33.3027 c3            1 HST        0.293003
      41 N12         13.6728    17.9472    33.7161 n             1 HST       -0.507797
      42 C24         12.6171    18.8649    34.1147 c3            1 HST        0.235003
      43 C25         14.8520    18.3406    34.2998 c             1 HST        0.803903
      44 O7          15.9291    17.8002    34.1443 o             1 HST       -0.581997
      45 N13         14.6481    19.5182    34.9489 n             1 HST       -0.507797
      46 C26         13.2780    19.9920    34.9165 c3            1 HST        0.235003
      47 C27         15.5935    19.9681    35.9384 c3            1 HST        0.293003
      48 N14         16.2615    21.2585    35.6905 n             1 HST       -0.507797
      49 C28         15.5931    22.5311    35.9310 c3            1 HST        0.235003
      50 C29         17.6015    21.4584    35.6882 c             1 HST        0.803903
      51 O8          18.3820    20.6064    35.9541 o             1 HST       -0.581997
      52 N15         17.8913    22.8281    35.6720 n             1 HST       -0.507797
      53 C30         19.1378    23.4759    35.9620 c3            1 HST        0.293003
      54 C31         16.7090    23.5865    35.9810 c3            1 HST        0.235003
      55 N16         19.8764    24.0376    34.8002 n             1 HST       -0.507797
      56 C32         19.6236    25.4690    34.4469 c3            1 HST        0.235003
      57 N17         18.3183    25.6064    33.8614 n             1 HST       -0.507797
      58 C33         17.0081    25.7431    34.6596 c3            1 HST        0.293003
      59 C34         18.4286    25.9707    32.5484 c             1 HST        0.803903
      60 O9          17.5149    26.2796    31.7999 o             1 HST       -0.581997
      61 N18         19.7248    26.0889    32.1989 n             1 HST       -0.507797
      62 C35         20.2416    26.4335    30.9258 c3            1 HST        0.293003
      63 N19         20.2984    25.2539    29.9837 n             1 HST       -0.507797
      64 C36         19.4361    24.9693    28.8832 c             1 HST        0.803903
      65 O10         18.3787    25.5023    28.7466 o             1 HST       -0.581997
      66 N20         20.0976    24.0708    28.0651 n             1 HST       -0.507797
      67 C37         20.0358    24.0910    26.6410 c3            1 HST        0.293003
      68 N21         19.8974    22.7438    26.1755 n             1 HST       -0.507797
      69 C38         18.8555    22.4631    25.3594 c             1 HST        0.803903
      70 O11         17.7472    23.0153    25.2335 o             1 HST       -0.581997
      71 N22         19.1351    21.3057    24.6198 n             1 HST       -0.507797
      72 C39         18.2739    20.8958    23.5198 c3            1 HST        0.293003
      73 N23         17.4474    19.7671    23.8690 n             1 HST       -0.507797
      74 C40         16.1021    19.7923    23.9968 c             1 HST        0.803903
      75 O12         15.4045    20.7837    24.1191 o             1 HST       -0.581997
      76 N24         15.6807    18.4902    24.2948 n             1 HST       -0.507797
      77 C41         14.2421    18.0981    24.1618 c3            1 HST        0.293003
      78 N25         13.7470    17.4109    25.3896 n             1 HST       -0.507797
      79 C42         12.6338    17.8241    26.0922 c             1 HST        0.803903
      80 O13         12.1004    18.9172    25.9069 o             1 HST       -0.581997
      81 N26         12.2645    16.8359    26.8986 n             1 HST       -0.507797
      82 C43         11.0464    16.8993    27.7141 c3            1 HST        0.293003
      83 N27         11.3292    17.1464    29.1607 n             1 HST       -0.507797
      84 C44         11.2113    18.3522    29.8145 c             1 HST        0.803903
      85 O14         10.7462    19.3580    29.3034 o             1 HST       -0.581997
      86 N28         11.4869    18.1902    31.1494 n             1 HST       -0.507797
      87 C45         10.9623    19.0996    32.1960 c3            1 HST        0.293003
      88 N29         11.9987    19.6212    33.0336 n             1 HST       -0.507797
      89 C46         12.2009    20.9762    33.0891 c             1 HST        0.803903
      90 O15         11.6077    21.8025    32.4204 o             1 HST       -0.581997
      91 N30         13.0539    21.2118    34.1269 n             1 HST       -0.507797
      92 C47         13.3142    22.5736    34.7672 c3            1 HST        0.293003
      93 N31         14.7489    22.9552    34.7830 n             1 HST       -0.507797
      94 C48         15.1627    24.1350    34.2369 c             1 HST        0.803903
      95 N32         16.3358    24.4626    34.8960 n             1 HST       -0.507797
      96 O16         14.6094    24.8587    33.4748 o             1 HST       -0.581997
      97 H1          21.2549    26.5963    33.5287 h2            1 HST        0.089103
      98 H2          22.9795    23.3692    32.6715 h2            1 HST        0.088303
      99 H3          22.8024    25.2224    32.2499 h2            1 HST        0.088303
     100 H4          22.3413    25.4704    29.8118 h2            1 HST        0.089103
     101 H5          22.2222    24.0896    27.8447 h2            1 HST        0.089103
     102 H6          22.3191    20.6741    28.9517 h2            1 HST        0.088303
     103 H7          23.2088    21.7051    27.8723 h2            1 HST        0.088303
     104 H8          21.8652    22.4994    25.5787 h2            1 HST        0.089103
     105 H9          21.2096    20.9200    24.0152 h2            1 HST        0.089103
     106 H10         20.7028    17.4546    25.3278 h2            1 HST        0.088303
     107 H11         20.5389    18.3845    23.7736 h2            1 HST        0.088303
     108 H12         18.3727    18.1771    22.7698 h2            1 HST        0.089103
     109 H13         16.5677    16.9298    23.1124 h2            1 HST        0.089103
     110 H14         16.2274    15.1026    24.3806 h2            1 HST        0.088303
     111 H15         17.1647    14.8712    25.9511 h2            1 HST        0.088303
     112 H16         13.8396    15.6107    24.5060 h2            1 HST        0.089103
     113 H17         12.2028    15.0054    26.1182 h2            1 HST        0.089103
     114 H18         12.1813    13.9674    28.5545 h2            1 HST        0.088303
     115 H19         13.7883    13.7083    29.2564 h2            1 HST        0.088303
     116 H20         10.8497    15.3301    30.1154 h2            1 HST        0.089103
     117 H21         10.9664    16.4689    32.2320 h2            1 HST        0.089103
     118 H22         12.7089    16.0523    33.9510 h2            1 HST        0.088303
     119 H23         14.3612    15.9950    33.4784 h2            1 HST        0.088303
     120 H24         11.9430    18.3111    34.7783 h2            1 HST        0.089103
     121 H25         12.9522    20.0844    35.9590 h2            1 HST        0.089103
     122 H26         15.2776    19.9807    36.9880 h2            1 HST        0.088303
     123 H27         16.3908    19.2164    35.9131 h2            1 HST        0.088303
     124 H28         14.9843    22.4982    36.8418 h2            1 HST        0.089103
     125 H29         19.7635    22.6542    36.3292 h2            1 HST        0.088303
     126 H30         18.9638    24.2408    36.7276 h2            1 HST        0.088303
     127 H31         16.8278    24.1966    36.8839 h2            1 HST        0.089103
     128 H32         19.7643    26.1118    35.3236 h2            1 HST        0.089103
     129 H33         17.4105    26.2274    35.5567 h2            1 HST        0.088303
     130 H34         16.3180    26.3477    34.0599 h2            1 HST        0.088303
     131 H35         21.2315    26.8844    31.0609 h2            1 HST        0.088303
     132 H36         19.6642    27.2505    30.4779 h2            1 HST        0.088303
     133 H37         20.9457    24.5838    26.2797 h2            1 HST        0.088303
     134 H38         19.1876    24.7026    26.3126 h2            1 HST        0.088303
     135 H39         18.9426    20.4796    22.7576 h2            1 HST        0.088303
     136 H40         17.6096    21.7178    23.2295 h2            1 HST        0.088303
     137 H41         13.6219    18.9900    24.0162 h2            1 HST        0.088303
     138 H42         14.1432    17.5329    23.2278 h2            1 HST        0.088303
     139 H43         10.4572    17.7521    27.3578 h2            1 HST        0.088303
     140 H44         10.3568    16.0584    27.5780 h2            1 HST        0.088303
     141 H45         10.3380    19.8635    31.7183 h2            1 HST        0.088303
     142 H46         10.3772    18.5187    32.9182 h2            1 HST        0.088303
     143 H47         12.6906    23.3562    34.3198 h2            1 HST        0.088303
     144 H48         13.0482    22.6026    35.8301 h2            1 HST        0.088303
@<TRIPOS>BOND
       1       94       95 1
       2       94       96 1
       3       93       94 1
       4       92       93 1
       5       91       92 1
       6       89       91 1
       7       89       90 1
       8       88       89 1
       9       87       88 1
      10       86       87 1
      11       84       86 1
      12       84       85 1
      13       83       84 1
      14       82       83 1
      15       81       82 1
      16       79       81 1
      17       79       80 1
      18       78       79 1
      19       77       78 1
      20       76       77 1
      21       74       76 1
      22       74       75 1
      23       73       74 1
      24       72       73 1
      25       71       72 1
      26       69       70 1
      27       69       71 1
      28       68       69 1
      29       67       68 1
      30       66       67 1
      31       64       65 1
      32       64       66 1
      33       63       64 1
      34       62       63 1
      35       61       62 1
      36       59       61 1
      37       59       60 1
      38       58       95 1
      39       57       58 1
      40       57       59 1
      41       56       57 1
      42       55       56 1
      43       54       95 1
      44       53       55 1
      45       52       53 1
      46       52       54 1
      47       50       51 1
      48       50       52 1
      49       49       54 1
      50       49       93 1
      51       48       50 1
      52       48       49 1
      53       47       48 1
      54       46       91 1
      55       45       47 1
      56       45       46 1
      57       43       45 1
      58       43       44 1
      59       42       46 1
      60       42       88 1
      61       41       43 1
      62       41       42 1
      63       40       41 1
      64       39       86 1
      65       38       40 1
      66       38       39 1
      67       36       38 1
      68       36       37 1
      69       35       39 1
      70       35       83 1
      71       34       36 1
      72       34       35 1
      73       33       34 1
      74       32       81 1
      75       31       33 1
      76       31       32 1
      77       29       30 1
      78       29       31 1
      79       28       32 1
      80       28       78 1
      81       27       29 1
      82       27       28 1
      83       26       27 1
      84       25       76 1
      85       24       26 1
      86       24       25 1
      87       22       23 1
      88       22       24 1
      89       21       25 1
      90       21       73 1
      91       20       22 1
      92       20       21 1
      93       19       20 1
      94       18       71 1
      95       17       18 1
      96       17       19 1
      97       15       16 1
      98       15       17 1
      99       14       18 1
     100       14       68 1
     101       13       15 1
     102       13       14 1
     103       12       13 1
     104       11       66 1
     105       10       11 1
     106       10       12 1
     107        8        9 1
     108        8       10 1
     109        7       11 1
     110        7       63 1
     111        6        7 1
     112        6        8 1
     113        5        6 1
     114        4       56 1
     115        4       61 1
     116        3        4 1
     117        3        5 1
     118        2       55 1
     119        2        3 1
     120        1        2 1
     121       92      143 1
     122       92      144 1
     123       87      141 1
     124       87      142 1
     125       82      139 1
     126       82      140 1
     127       77      137 1
     128       77      138 1
     129       72      135 1
     130       72      136 1
     131       67      133 1
     132       67      134 1
     133       62      131 1
     134       62      132 1
     135       58      129 1
     136       58      130 1
     137       56      128 1
     138       54      127 1
     139       53      125 1
     140       53      126 1
     141       49      124 1
     142       47      122 1
     143       47      123 1
     144       46      121 1
     145       42      120 1
     146       40      118 1
     147       40      119 1
     148       39      117 1
     149       35      116 1
     150       33      114 1
     151       33      115 1
     152       32      113 1
     153       28      112 1
     154       26      110 1
     155       26      111 1
     156       25      109 1
     157       21      108 1
     158       19      106 1
     159       19      107 1
     160       18      105 1
     161       14      104 1
     162       12      102 1
     163       12      103 1
     164       11      101 1
     165        7      100 1
     166        5       98 1
     167        5       99 1
     168        4       97 1
@<TRIPOS>SUBSTRUCTURE
       1 HST             1 RESIDUE    0 **** ROOT      0
