@<TRIPOS>MOLECULE
GST
17 16 1 0 1
SMALL
USER_CHARGES
@<TRIPOS>CRYSIN
   42.8716    43.1756    43.3085    90.0000    90.0000    90.0000  1  1
@<TRIPOS>ATOM
       1 C1          20.3885    28.5477    18.3888 c2            1 GST       -0.256996
       2 C2          20.9170    29.5708    17.7014 c2            1 GST       -0.131094
       3 C3          22.0009    31.9453    14.4784 c             1 GST        0.908306
       4 C4          21.0959    29.4597    16.1960 c3            1 GST       -0.061794
       5 C5          20.7791    31.8499    15.4338 c3            1 GST       -0.195794
       6 C6          20.1815    30.4749    15.4912 c3            1 GST       -0.047094
       7 O1          21.9618    32.2464    13.2999 o             1 GST       -0.853994
       8 O2          23.0876    31.5718    14.8107 o             1 GST       -0.853994
       9 H1          20.2301    28.5285    19.4649 ha            1 GST        0.098706
      10 H2          19.9331    27.7427    17.8160 ha            1 GST        0.098706
      11 H3          21.3264    30.4948    18.1040 ha            1 GST        0.109806
      12 H4          20.8574    28.4244    15.9232 hc            1 GST        0.045806
      13 H5          22.1473    29.6315    15.9348 hc            1 GST        0.045806
      14 H6          21.1057    32.1485    16.4375 hc            1 GST        0.021106
      15 H7          20.0284    32.5695    15.0848 hc            1 GST        0.021106
      16 H8          19.9151    30.0632    14.5100 hc            1 GST        0.025706
      17 H9          19.1914    30.5359    15.9594 hc            1 GST        0.025706
@<TRIPOS>BOND
       1        5        6 1
       2        4        6 1
       3        3        5 1
       4        3        7 1
       5        3        8 1
       6        2        4 1
       7        1        2 1
       8        6       16 1
       9        6       17 1
      10        5       14 1
      11        5       15 1
      12        4       12 1
      13        4       13 1
      14        2       11 1
      15        1        9 1
      16        1       10 1
@<TRIPOS>SUBSTRUCTURE
       1 GST             1 RESIDUE    0 **** ROOT      0
