@<TRIPOS>MOLECULE
GST
19 18 1 0 1
SMALL
USER_CHARGES
@<TRIPOS>CRYSIN
   42.9250    43.1368    43.2501    90.0000    90.0000    90.0000  1  1
@<TRIPOS>ATOM
       1 C1          16.9505    19.2277    22.4950 c             1 GST        0.907712
       2 C2          20.5776    16.4938    23.6965 c3            1 GST       -0.083484
       3 C3          20.0329    18.7591    22.6350 c3            1 GST       -0.083484
       4 C4          16.9470    17.7891    22.6437 c3            1 GST       -0.194484
       5 C5          18.0569    17.2932    23.5844 c3            1 GST       -0.047484
       6 C6          19.5130    17.3222    22.9682 c3            1 GST       -0.073084
       7 O1          17.1305    19.6929    21.3661 o             1 GST       -0.854684
       8 O2          16.7108    19.9334    23.4472 o             1 GST       -0.854684
       9 H1          20.2974    15.4577    23.9226 hc            1 GST        0.021916
      10 H2          20.7736    16.8850    24.7024 hc            1 GST        0.021916
      11 H3          21.5618    16.4668    23.2131 hc            1 GST        0.021916
      12 H4          20.0722    19.4863    23.4553 hc            1 GST        0.021916
      13 H5          19.5071    19.1447    21.7529 hc            1 GST        0.021916
      14 H6          21.1155    18.6172    22.5303 hc            1 GST        0.021916
      15 H7          16.9267    17.2363    21.6965 hc            1 GST        0.020416
      16 H8          15.9824    17.5661    23.1160 hc            1 GST        0.020416
      17 H9          17.7949    16.2799    23.9127 hc            1 GST        0.025416
      18 H10         18.0588    17.9580    24.4569 hc            1 GST        0.025416
      19 H11         19.3632    16.9019    21.9661 hc            1 GST        0.060516
@<TRIPOS>BOND
       1        5        6 1
       2        4        5 1
       3        3        6 1
       4        2        6 1
       5        1        4 1
       6        1        7 1
       7        1        8 1
       8        6       19 1
       9        5       17 1
      10        5       18 1
      11        4       15 1
      12        4       16 1
      13        3       12 1
      14        3       13 1
      15        3       14 1
      16        2        9 1
      17        2       10 1
      18        2       11 1
@<TRIPOS>SUBSTRUCTURE
       1 GST             1 RESIDUE    0 **** ROOT      0
