@<TRIPOS>MOLECULE
GST
19 18 1 0 1
SMALL
USER_CHARGES
@<TRIPOS>CRYSIN
   42.8671    43.0786    43.3921    90.0000    90.0000    90.0000  1  1
@<TRIPOS>ATOM
       1 C1          21.4815    29.7228     8.1120 c             1 GST        0.907712
       2 C2          22.5962    25.3886    10.4300 c3            1 GST       -0.083484
       3 C3          20.2001    26.1240    10.4528 c3            1 GST       -0.083484
       4 C4          21.1980    28.9262     9.4124 c3            1 GST       -0.194484
       5 C5          21.9176    27.5894     9.3258 c3            1 GST       -0.047484
       6 C6          21.6267    26.5831    10.4365 c3            1 GST       -0.073084
       7 O1          22.2176    30.7866     8.1079 o             1 GST       -0.854684
       8 O2          20.9718    29.2993     7.0646 o             1 GST       -0.854684
       9 H1          23.6504    25.6216    10.2360 hc            1 GST        0.021916
      10 H2          22.4048    24.7906     9.5306 hc            1 GST        0.021916
      11 H3          22.5981    24.7200    11.2996 hc            1 GST        0.021916
      12 H4          19.8829    25.5662     9.5632 hc            1 GST        0.021916
      13 H5          19.5896    27.0268    10.5769 hc            1 GST        0.021916
      14 H6          20.1061    25.4417    11.3065 hc            1 GST        0.021916
      15 H7          20.1129    28.7671     9.4310 hc            1 GST        0.020416
      16 H8          21.5996    29.3227    10.3530 hc            1 GST        0.020416
      17 H9          22.9925    27.7845     9.2264 hc            1 GST        0.025416
      18 H10         21.6324    27.0404     8.4200 hc            1 GST        0.025416
      19 H11         21.7259    27.1037    11.3969 hc            1 GST        0.060516
@<TRIPOS>BOND
       1        5        6 1
       2        4        5 1
       3        3        6 1
       4        2        6 1
       5        1        4 1
       6        1        7 1
       7        1        8 1
       8        6       19 1
       9        5       17 1
      10        5       18 1
      11        4       15 1
      12        4       16 1
      13        3       12 1
      14        3       13 1
      15        3       14 1
      16        2        9 1
      17        2       10 1
      18        2       11 1
@<TRIPOS>SUBSTRUCTURE
       1 GST             1 RESIDUE    0 **** ROOT      0
