@<TRIPOS>MOLECULE
GST
17 16 1 0 1
SMALL
USER_CHARGES
@<TRIPOS>CRYSIN
   42.7365    43.2287    43.2599    90.0000    90.0000    90.0000  1  1
@<TRIPOS>ATOM
       1 C1          27.7040    24.8893    27.9367 c2            1 GST       -0.256996
       2 C2          27.7600    25.6290    26.8053 c2            1 GST       -0.131094
       3 C3          25.4055    27.9163    22.9291 c             1 GST        0.908306
       4 C4          26.6970    26.5573    26.3454 c3            1 GST       -0.061794
       5 C5          25.3731    27.6920    24.4438 c3            1 GST       -0.195794
       6 C6          26.6387    26.9287    24.8190 c3            1 GST       -0.047094
       7 O1          25.7257    27.0419    22.1629 o             1 GST       -0.853994
       8 O2          25.2020    29.0271    22.4380 o             1 GST       -0.853994
       9 H1          28.5257    24.3022    28.3413 ha            1 GST        0.098706
      10 H2          26.8653    24.9471    28.6271 ha            1 GST        0.098706
      11 H3          28.5841    25.5657    26.0980 ha            1 GST        0.109806
      12 H4          26.8944    27.4569    26.9411 hc            1 GST        0.045806
      13 H5          25.7593    26.1344    26.7263 hc            1 GST        0.045806
      14 H6          25.2591    28.6297    25.0013 hc            1 GST        0.021106
      15 H7          24.4542    27.1155    24.6066 hc            1 GST        0.021106
      16 H8          27.5373    27.5284    24.6292 hc            1 GST        0.025706
      17 H9          26.6302    26.0227    24.2008 hc            1 GST        0.025706
@<TRIPOS>BOND
       1        5        6 1
       2        4        6 1
       3        3        5 1
       4        3        7 1
       5        3        8 1
       6        2        4 1
       7        1        2 1
       8        6       16 1
       9        6       17 1
      10        5       14 1
      11        5       15 1
      12        4       12 1
      13        4       13 1
      14        2       11 1
      15        1        9 1
      16        1       10 1
@<TRIPOS>SUBSTRUCTURE
       1 GST             1 RESIDUE    0 **** ROOT      0
