@<TRIPOS>MOLECULE
GST
49 52 1 0 1
SMALL
USER_CHARGES
@<TRIPOS>CRYSIN
   40.0986    40.4641    40.3594    90.0000    90.0000    90.0000  1  1
@<TRIPOS>ATOM
       1 C1          11.4546    14.5462    23.4405 ca            1 GST       -0.117588
       2 C2          11.7599    13.6270    22.4057 ca            1 GST       -0.155594
       3 C3          13.5118    18.1191    24.0077 ca            1 GST       -0.240594
       4 C4          13.6383    15.1263    21.8721 ca            1 GST       -0.222794
       5 C5          12.5206    17.6976    24.8835 ca            1 GST        0.393806
       6 C6          13.2892    16.0685    22.8716 ca            1 GST       -0.089794
       7 C7          13.9837    17.2876    23.0143 ca            1 GST       -0.134794
       8 C8          12.1744    15.7635    23.7087 ca            1 GST        0.364606
       9 C9          12.8899    13.9704    21.6481 ca            1 GST        0.167506
      10 C10         21.1217    18.7047    22.7071 c2            1 GST       -0.158994
      11 C11         20.1555    17.8245    22.5576 c2            1 GST       -0.212394
      12 C12         17.3395    16.1341    24.8062 c3            1 GST       -0.098594
      13 C13         17.3199    16.4830    22.3572 c3            1 GST       -0.088494
      14 C14         16.4447    17.4571    25.0133 c3            1 GST        0.114206
      15 C15         18.2169    18.7458    24.0133 c3            1 GST        0.115206
      16 C16         19.1406    17.5434    23.7253 c3            1 GST       -0.039494
      17 C17         18.2696    16.2419    23.5603 c3            1 GST       -0.071194
      18 C18         16.5242    17.7970    22.5169 c3            1 GST        0.097006
      19 C19         12.3603    12.4954    19.6686 c3            1 GST        0.108506
      20 C20         15.0406    17.8480    22.0081 c3            1 GST        0.186806
      21 N1          11.8421    16.5724    24.7096 nb            1 GST       -0.604294
      22 N2          16.7160    18.4330    23.8624 n4            1 GST       -0.682794
      23 O1          14.6564    19.1673    21.6494 oh            1 GST       -0.571294
      24 O2          13.2836    13.0417    20.6578 os            1 GST       -0.315094
      25 H1          10.7115    14.2233    24.1637 ha            1 GST        0.172306
      26 H2          11.2403    12.6735    22.3983 ha            1 GST        0.166306
      27 H3          13.8953    19.1064    24.2475 ha            1 GST        0.137006
      28 H4          14.4910    15.2347    21.2083 ha            1 GST        0.138606
      29 H5          12.1144    18.3680    25.6395 h4            1 GST        0.043206
      30 H6          21.8719    18.8176    21.9274 ha            1 GST        0.131706
      31 H7          21.2064    19.1680    23.6878 ha            1 GST        0.131706
      32 H8          20.0388    17.3545    21.5834 ha            1 GST        0.131906
      33 H9          18.0075    16.0518    25.6723 hc            1 GST        0.086206
      34 H10         16.6814    15.2566    24.8003 hc            1 GST        0.086206
      35 H11         17.8664    16.3630    21.4137 hc            1 GST        0.091006
      36 H12         16.5871    15.6668    22.3487 hc            1 GST        0.091006
      37 H13         15.3670    17.3615    25.1532 hx            1 GST        0.101606
      38 H14         16.8254    17.9164    25.9267 hx            1 GST        0.101606
      39 H15         18.4176    19.0130    25.0518 hx            1 GST        0.099806
      40 H16         18.4050    19.5347    23.2835 hx            1 GST        0.099806
      41 H17         19.7403    17.4699    24.6408 hc            1 GST        0.088106
      42 H18         18.8910    15.3389    23.5228 hc            1 GST        0.111606
      43 H19         17.0917    18.4992    21.9043 hx            1 GST        0.098506
      44 H20         11.7971    11.7113    20.1893 h1            1 GST        0.055406
      45 H21         11.7056    13.3023    19.3173 h1            1 GST        0.055406
      46 H22         12.7821    12.0108    18.7795 h1            1 GST        0.055406
      47 H23         14.9073    17.2755    21.0821 h1            1 GST        0.095506
      48 H24         16.1473    19.2592    24.0982 hn            1 GST        0.458306
      49 H25         13.6863    19.1532    21.5758 ho            1 GST        0.427906
@<TRIPOS>BOND
       1       20       23 1
       2       19       24 1
       3       18       20 1
       4       18       22 1
       5       16       17 1
       6       15       16 1
       7       15       22 1
       8       14       22 1
       9       13       17 1
      10       13       18 1
      11       12       14 1
      12       12       17 1
      13       11       16 1
      14       10       11 1
      15        9       24 1
      16        8       21 1
      17        7       20 1
      18        6        7 1
      19        6        8 1
      20        5       21 1
      21        4        6 1
      22        4        9 1
      23        3        5 1
      24        3        7 1
      25        2        9 1
      26        1        2 1
      27        1        8 1
      28       23       49 1
      29       22       48 1
      30       20       47 1
      31       19       44 1
      32       19       45 1
      33       19       46 1
      34       18       43 1
      35       17       42 1
      36       16       41 1
      37       15       39 1
      38       15       40 1
      39       14       37 1
      40       14       38 1
      41       13       35 1
      42       13       36 1
      43       12       33 1
      44       12       34 1
      45       11       32 1
      46       10       30 1
      47       10       31 1
      48        5       29 1
      49        4       28 1
      50        3       27 1
      51        2       26 1
      52        1       25 1
@<TRIPOS>SUBSTRUCTURE
       1 GST             1 RESIDUE    0 **** ROOT      0
