@<TRIPOS>MOLECULE
HST
144 168 1 0 1
SMALL
USER_CHARGES
@<TRIPOS>CRYSIN
   40.0986    40.4641    40.3594    90.0000    90.0000    90.0000  1  1
@<TRIPOS>ATOM
       1 O1          23.0220    16.5723    21.3397 o             1 HST       -0.582429
       2 C1          22.4822    15.4489    21.4232 c             1 HST        0.803903
       3 N1          22.4450    14.6536    22.5378 n             1 HST       -0.507797
       4 C2          21.8484    13.3240    22.2900 c3            1 HST        0.235003
       5 C3          23.2671    15.0361    23.6400 c3            1 HST        0.293003
       6 N2          22.4525    15.3929    24.8131 n             1 HST       -0.507797
       7 C4          22.0158    14.3457    25.7008 c3            1 HST        0.235003
       8 C5          22.5521    16.6206    25.4205 c             1 HST        0.803903
       9 O2          23.0449    17.5914    24.9195 o             1 HST       -0.581997
      10 N3          22.0868    16.4236    26.6499 n             1 HST       -0.507797
      11 C6          21.6908    15.0477    27.0070 c3            1 HST        0.235003
      12 C7          22.0076    17.4641    27.6601 c3            1 HST        0.293003
      13 N4          20.7711    18.1996    27.6462 n             1 HST       -0.507797
      14 C8          19.8022    17.7017    28.5807 c3            1 HST        0.235003
      15 C9          20.4965    19.4660    27.1913 c             1 HST        0.803903
      16 O3          21.1087    20.1242    26.4230 o             1 HST       -0.581997
      17 N5          19.2560    19.8387    27.6629 n             1 HST       -0.507797
      18 C10         18.8307    18.8604    28.6905 c3            1 HST        0.235003
      19 C11         18.9639    21.2399    28.0346 c3            1 HST        0.293003
      20 N6          17.6639    21.7733    27.5254 n             1 HST       -0.507797
      21 C12         16.4363    21.4100    28.1912 c3            1 HST        0.235003
      22 C13         17.4484    22.7566    26.6222 c             1 HST        0.803903
      23 O4          18.3186    23.2759    25.9881 o             1 HST       -0.581997
      24 N7          16.1079    23.1197    26.6611 n             1 HST       -0.507797
      25 C14         15.3954    22.3915    27.6495 c3            1 HST        0.235003
      26 C15         15.5420    24.3996    26.1907 c3            1 HST        0.293003
      27 N8          14.7026    24.2650    25.0190 n             1 HST       -0.507797
      28 C16         13.2950    23.9427    25.1961 c3            1 HST        0.235003
      29 C17         14.9711    24.7194    23.7655 c             1 HST        0.803903
      30 O5          16.0182    25.2567    23.3406 o             1 HST       -0.581997
      31 N9          13.8243    24.6247    23.0304 n             1 HST       -0.507797
      32 C18         12.6667    24.1729    23.7874 c3            1 HST        0.235003
      33 C19         13.6527    25.0423    21.5935 c3            1 HST        0.293003
      34 N10         13.6839    23.9521    20.6545 n             1 HST       -0.507797
      35 C20         12.4428    23.3117    20.1820 c3            1 HST        0.235003
      36 C21         14.7627    23.4680    20.0348 c             1 HST        0.803903
      37 O6          15.9234    23.7493    20.2987 o             1 HST       -0.581997
      38 N11         14.3163    22.7586    18.9474 n             1 HST       -0.507797
      39 C22         12.8855    22.4725    18.9883 c3            1 HST        0.235003
      40 C23         15.1918    22.2447    17.8532 c3            1 HST        0.293003
      41 N12         15.6916    20.8306    18.0334 n             1 HST       -0.507797
      42 C24         14.9536    19.7340    17.4051 c3            1 HST        0.235003
      43 C25         16.9550    20.4693    18.3659 c             1 HST        0.803903
      44 O7          17.8178    21.2218    18.8595 o             1 HST       -0.581997
      45 N13         17.1244    19.1665    18.0252 n             1 HST       -0.507797
      46 C26         15.9010    18.5928    17.4138 c3            1 HST        0.235003
      47 C27         18.4166    18.6112    17.5909 c3            1 HST        0.293003
      48 N14         18.7757    17.4395    18.3040 n             1 HST       -0.507797
      49 C28         18.2170    16.1238    17.9480 c3            1 HST        0.235003
      50 C29         20.0188    17.2930    18.9002 c             1 HST        0.803903
      51 O8          20.7342    18.2161    19.1513 o             1 HST       -0.581997
      52 N15         20.2783    15.9889    18.9118 n             1 HST       -0.507797
      53 C30         21.5923    15.4200    19.1754 c3            1 HST        0.293003
      54 C31         19.2477    15.1913    18.4208 c3            1 HST        0.235003
      55 N16         21.7609    14.8292    20.4908 n             1 HST       -0.507797
      56 C32         21.3250    13.5252    20.8808 c3            1 HST        0.235003
      57 N17         19.8953    13.2768    21.0316 n             1 HST       -0.507797
      58 C33         19.0953    13.0786    19.8242 c3            1 HST        0.293003
      59 C34         19.4534    12.9700    22.3060 c             1 HST        0.803903
      60 O9          18.3530    12.7402    22.7597 o             1 HST       -0.581997
      61 N18         20.6326    13.0483    23.0429 n             1 HST       -0.507797
      62 C35         20.7109    12.5485    24.4530 c3            1 HST        0.293003
      63 N19         20.7355    13.6883    25.3577 n             1 HST       -0.507797
      64 C36         19.7539    13.9515    26.2891 c             1 HST        0.803903
      65 O10         18.6411    13.4336    26.2941 o             1 HST       -0.581997
      66 N20         20.2487    14.8619    27.1595 n             1 HST       -0.507797
      67 C37         19.5177    15.2819    28.3631 c3            1 HST        0.293003
      68 N21         18.9957    16.6242    28.2386 n             1 HST       -0.507797
      69 C38         17.6255    16.8916    28.2049 c             1 HST        0.803903
      70 O11         16.6676    16.1495    27.9960 o             1 HST       -0.581997
      71 N22         17.5859    18.2590    28.4380 n             1 HST       -0.507797
      72 C39         16.3243    18.9664    28.7709 c3            1 HST        0.293003
      73 N23         16.0009    20.0792    27.9025 n             1 HST       -0.507797
      74 C40         14.8029    20.1552    27.1981 c             1 HST        0.803903
      75 O12         14.0832    19.2236    26.9173 o             1 HST       -0.581997
      76 N24         14.4625    21.4789    27.0914 n             1 HST       -0.507797
      77 C41         13.1124    21.9194    26.6760 c3            1 HST        0.293003
      78 N25         13.0510    22.4791    25.3401 n             1 HST       -0.507797
      79 C42         12.2318    21.9674    24.4307 c             1 HST        0.803903
      80 O13         11.5898    20.9378    24.5682 o             1 HST       -0.581997
      81 N26         12.1071    22.8946    23.4508 n             1 HST       -0.507797
      82 C43         11.2606    22.7181    22.2776 c3            1 HST        0.293003
      83 N27         11.9378    22.2680    21.0870 n             1 HST       -0.507797
      84 C44         12.0432    20.9627    20.5959 c             1 HST        0.803903
      85 O14         11.6336    19.8958    21.0156 o             1 HST       -0.581997
      86 N28         12.6204    21.1195    19.3438 n             1 HST       -0.507797
      87 C45         12.5812    20.1063    18.3899 c3            1 HST        0.293003
      88 N29         13.8037    19.3103    18.2650 n             1 HST       -0.507797
      89 C46         14.0019    18.0080    18.6562 c             1 HST        0.803903
      90 O15         13.1969    17.2533    19.1855 o             1 HST       -0.581997
      91 N30         15.1806    17.5658    18.1473 n             1 HST       -0.507797
      92 C47         15.6644    16.1913    17.9701 c3            1 HST        0.293003
      93 N31         16.9759    15.8262    18.7487 n             1 HST       -0.507797
      94 C48         17.1919    14.6526    19.5111 c             1 HST        0.803903
      95 N32         18.5532    14.3790    19.4760 n             1 HST       -0.507797
      96 O16         16.3598    13.9781    20.1263 o             1 HST       -0.581997
      97 H1          22.5660    12.4960    22.3213 h2            1 HST        0.089103
      98 H2          23.9926    15.8206    23.3960 h2            1 HST        0.088303
      99 H3          23.8277    14.1629    23.9930 h2            1 HST        0.088303
     100 H4          22.7875    13.5885    25.8813 h2            1 HST        0.089103
     101 H5          22.2166    14.7054    27.9058 h2            1 HST        0.089103
     102 H6          22.7050    18.2813    27.4425 h2            1 HST        0.088303
     103 H7          22.1526    17.0614    28.6692 h2            1 HST        0.088303
     104 H8          20.2282    17.4965    29.5696 h2            1 HST        0.089103
     105 H9          18.7448    19.3784    29.6527 h2            1 HST        0.089103
     106 H10         19.7429    21.7531    27.4592 h2            1 HST        0.088303
     107 H11         18.9959    21.4245    29.1146 h2            1 HST        0.088303
     108 H12         16.6408    21.5880    29.2532 h2            1 HST        0.089103
     109 H13         15.0305    23.0712    28.4281 h2            1 HST        0.089103
     110 H14         14.9917    24.8197    27.0404 h2            1 HST        0.088303
     111 H15         16.3760    25.0918    26.0276 h2            1 HST        0.088303
     112 H16         12.8347    24.5502    25.9839 h2            1 HST        0.089103
     113 H17         12.0030    25.0449    23.8112 h2            1 HST        0.089103
     114 H18         12.6553    25.4945    21.5460 h2            1 HST        0.088303
     115 H19         14.4215    25.7975    21.3931 h2            1 HST        0.088303
     116 H20         11.6995    24.0695    19.9089 h2            1 HST        0.089103
     117 H21         12.4087    22.7257    18.0344 h2            1 HST        0.089103
     118 H22         14.6186    22.3940    16.9309 h2            1 HST        0.088303
     119 H23         16.0936    22.8585    17.7469 h2            1 HST        0.088303
     120 H24         14.6614    19.9951    16.3815 h2            1 HST        0.089103
     121 H25         15.9856    18.2723    16.3690 h2            1 HST        0.089103
     122 H26         18.4251    18.2979    16.5406 h2            1 HST        0.088303
     123 H27         19.2474    19.3147    17.7183 h2            1 HST        0.088303
     124 H28         18.1246    16.1049    16.8560 h2            1 HST        0.089103
     125 H29         22.3472    16.1804    18.9443 h2            1 HST        0.088303
     126 H30         21.6632    14.6020    18.4493 h2            1 HST        0.088303
     127 H31         19.6066    14.5687    17.5931 h2            1 HST        0.089103
     128 H32         21.7670    12.7790    20.2105 h2            1 HST        0.089103
     129 H33         19.8404    12.9346    19.0333 h2            1 HST        0.088303
     130 H34         18.2666    12.3656    19.9035 h2            1 HST        0.088303
     131 H35         21.6180    11.9575    24.6241 h2            1 HST        0.088303
     132 H36         19.8029    11.9710    24.6613 h2            1 HST        0.088303
     133 H37         20.1241    15.1624    29.2683 h2            1 HST        0.088303
     134 H38         18.5972    14.6895    28.3073 h2            1 HST        0.088303
     135 H39         16.4768    19.3540    29.7847 h2            1 HST        0.088303
     136 H40         15.4473    18.3126    28.7009 h2            1 HST        0.088303
     137 H41         12.4682    21.0477    26.8393 h2            1 HST        0.088303
     138 H42         12.7438    22.6192    27.4348 h2            1 HST        0.088303
     139 H43         10.5155    21.9511    22.5183 h2            1 HST        0.088303
     140 H44         10.6946    23.6383    22.0922 h2            1 HST        0.088303
     141 H45         11.8213    19.4598    18.8437 h2            1 HST        0.088303
     142 H46         12.1429    20.3870    17.4252 h2            1 HST        0.088303
     143 H47         14.9617    15.4245    18.3162 h2            1 HST        0.088303
     144 H48         15.8133    15.9429    16.9130 h2            1 HST        0.088303
@<TRIPOS>BOND
       1       94       95 1
       2       94       96 1
       3       93       94 1
       4       92       93 1
       5       91       92 1
       6       89       91 1
       7       89       90 1
       8       88       89 1
       9       87       88 1
      10       86       87 1
      11       84       86 1
      12       84       85 1
      13       83       84 1
      14       82       83 1
      15       81       82 1
      16       79       81 1
      17       79       80 1
      18       78       79 1
      19       77       78 1
      20       76       77 1
      21       74       76 1
      22       74       75 1
      23       73       74 1
      24       72       73 1
      25       71       72 1
      26       69       70 1
      27       69       71 1
      28       68       69 1
      29       67       68 1
      30       66       67 1
      31       64       65 1
      32       64       66 1
      33       63       64 1
      34       62       63 1
      35       61       62 1
      36       59       61 1
      37       59       60 1
      38       58       95 1
      39       57       58 1
      40       57       59 1
      41       56       57 1
      42       55       56 1
      43       54       95 1
      44       53       55 1
      45       52       53 1
      46       52       54 1
      47       50       51 1
      48       50       52 1
      49       49       54 1
      50       49       93 1
      51       48       50 1
      52       48       49 1
      53       47       48 1
      54       46       91 1
      55       45       47 1
      56       45       46 1
      57       43       45 1
      58       43       44 1
      59       42       46 1
      60       42       88 1
      61       41       43 1
      62       41       42 1
      63       40       41 1
      64       39       86 1
      65       38       40 1
      66       38       39 1
      67       36       38 1
      68       36       37 1
      69       35       39 1
      70       35       83 1
      71       34       36 1
      72       34       35 1
      73       33       34 1
      74       32       81 1
      75       31       33 1
      76       31       32 1
      77       29       30 1
      78       29       31 1
      79       28       32 1
      80       28       78 1
      81       27       29 1
      82       27       28 1
      83       26       27 1
      84       25       76 1
      85       24       26 1
      86       24       25 1
      87       22       23 1
      88       22       24 1
      89       21       25 1
      90       21       73 1
      91       20       22 1
      92       20       21 1
      93       19       20 1
      94       18       71 1
      95       17       18 1
      96       17       19 1
      97       15       16 1
      98       15       17 1
      99       14       18 1
     100       14       68 1
     101       13       15 1
     102       13       14 1
     103       12       13 1
     104       11       66 1
     105       10       11 1
     106       10       12 1
     107        8        9 1
     108        8       10 1
     109        7       11 1
     110        7       63 1
     111        6        7 1
     112        6        8 1
     113        5        6 1
     114        4       56 1
     115        4       61 1
     116        3        4 1
     117        3        5 1
     118        2       55 1
     119        2        3 1
     120        1        2 1
     121       92      143 1
     122       92      144 1
     123       87      141 1
     124       87      142 1
     125       82      139 1
     126       82      140 1
     127       77      137 1
     128       77      138 1
     129       72      135 1
     130       72      136 1
     131       67      133 1
     132       67      134 1
     133       62      131 1
     134       62      132 1
     135       58      129 1
     136       58      130 1
     137       56      128 1
     138       54      127 1
     139       53      125 1
     140       53      126 1
     141       49      124 1
     142       47      122 1
     143       47      123 1
     144       46      121 1
     145       42      120 1
     146       40      118 1
     147       40      119 1
     148       39      117 1
     149       35      116 1
     150       33      114 1
     151       33      115 1
     152       32      113 1
     153       28      112 1
     154       26      110 1
     155       26      111 1
     156       25      109 1
     157       21      108 1
     158       19      106 1
     159       19      107 1
     160       18      105 1
     161       14      104 1
     162       12      102 1
     163       12      103 1
     164       11      101 1
     165        7      100 1
     166        5       98 1
     167        5       99 1
     168        4       97 1
@<TRIPOS>SUBSTRUCTURE
       1 HST             1 RESIDUE    0 **** ROOT      0
