@<TRIPOS>MOLECULE
HST
184 204 1 0 1
SMALL
USER_CHARGES
@<TRIPOS>CRYSIN
   42.6798    43.1713    43.2844    90.0000    90.0000    90.0000  1  1
@<TRIPOS>ATOM
       1 C1          12.0739    26.2307    22.8473 ca            1 HST       -0.079381
       2 C2          11.1267    28.6766    21.7731 ca            1 HST        0.094407
       3 C3          12.6196    27.4404    23.2635 ca            1 HST       -0.086793
       4 C4          11.1385    26.2317    21.8225 ca            1 HST        0.094407
       5 C5          10.5847    27.4399    21.4315 ca            1 HST       -0.145993
       6 C6          12.2052    28.6563    22.6978 ca            1 HST       -0.078493
       7 O1          10.5571    29.8437    21.3494 os            1 HST       -0.354893
       8 C7          12.7636    29.9703    23.1823 c3            1 HST        0.028407
       9 C8           9.5720    30.3656    22.2412 c3            1 HST        0.385107
      10 O2          10.1932    31.4470    22.9488 os            1 HST       -0.354893
      11 C9          10.7388    31.2223    24.1183 ca            1 HST        0.094407
      12 C10         11.9560    30.5224    24.3436 ca            1 HST       -0.078493
      13 C11         12.3663    30.2314    25.6560 ca            1 HST       -0.086793
      14 C12          9.9473    31.6022    25.1952 ca            1 HST       -0.145993
      15 C13         11.5985    30.6509    26.7489 ca            1 HST       -0.078493
      16 C14         10.3711    31.2430    26.4645 ca            1 HST        0.094407
      17 O3           9.5539    31.5477    27.4554 os            1 HST       -0.354893
      18 C15         12.0256    30.3593    28.1596 c3            1 HST        0.028407
      19 C16         11.2403    29.0855    28.6235 ca            1 HST       -0.078493
      20 C17          9.9909    29.0943    29.2009 ca            1 HST        0.094407
      21 C18          8.6292    30.5910    28.0023 c3            1 HST        0.385107
      22 O4           9.1416    30.1861    29.2403 os            1 HST       -0.354893
      23 O5          10.3940    25.0809    21.6123 os            1 HST       -0.354893
      24 C19         12.5065    24.8856    23.5260 c3            1 HST        0.028407
      25 C20         11.6983    24.6030    24.7722 ca            1 HST       -0.078493
      26 O6           9.9431    23.7491    23.4638 os            1 HST       -0.354893
      27 C21         10.4638    24.0091    24.6715 ca            1 HST        0.094407
      28 C22          9.4410    27.9108    29.6834 ca            1 HST       -0.145993
      29 C23         10.0201    26.7017    29.4742 ca            1 HST        0.094407
      30 C24          9.6682    23.8174    25.8046 ca            1 HST       -0.145993
      31 C25         10.1418    24.1678    27.0632 ca            1 HST        0.094407
      32 O7           9.2531    25.5867    29.7778 os            1 HST       -0.354893
      33 O8           9.3191    23.9216    28.0385 os            1 HST       -0.354893
      34 C26          8.5229    24.9690    28.7028 c3            1 HST        0.385107
      35 C27         12.1743    25.0588    26.0564 ca            1 HST       -0.086793
      36 C28         11.4435    24.7904    27.2440 ca            1 HST       -0.078493
      37 C29         11.9322    27.8297    28.4569 ca            1 HST       -0.086793
      38 C30         11.9580    25.2364    28.6050 c3            1 HST        0.028407
      39 C31         11.3223    26.6038    28.9384 ca            1 HST       -0.078493
      40 C32          9.4872    24.9130    22.6818 c3            1 HST        0.385107
      41 C33         13.5831    30.3384    28.5256 c3            1 HST       -0.059693
      42 C34         14.2364    31.7509    28.2895 c3            1 HST       -0.187693
      43 C35         15.5650    31.8290    29.0165 c             1 HST        0.906807
      44 O9          15.6828    32.5200    30.0085 o             1 HST       -0.865693
      45 C36         14.2869    29.9611    23.2987 c3            1 HST       -0.059693
      46 C37         14.9609    29.5545    21.9772 c3            1 HST       -0.187693
      47 C38         16.4814    29.2808    22.0308 c             1 HST        0.906807
      48 O10         16.9775    28.1756    22.0628 o             1 HST       -0.865693
      49 C39         14.0596    24.7133    23.6879 c3            1 HST       -0.059693
      50 C40         14.6252    23.4272    24.2825 c3            1 HST       -0.187693
      51 C41         16.1021    23.4357    24.3423 c             1 HST        0.906807
      52 O11         16.7102    24.3884    23.8349 o             1 HST       -0.865693
      53 C42         13.4862    25.0297    28.7771 c3            1 HST       -0.059693
      54 C43         14.0679    23.6397    28.4697 c3            1 HST       -0.187693
      55 C44         15.2195    23.2537    29.4181 c             1 HST        0.906807
      56 O12         16.2383    22.8769    28.8899 o             1 HST       -0.865693
      57 C45          8.3494    30.8265    21.4807 ca            1 HST       -0.077493
      58 C46          5.8954    31.4182    20.1768 ca            1 HST       -0.142593
      59 C47          7.3783    31.6943    22.0907 ca            1 HST       -0.129193
      60 C48          7.9117    30.0745    20.3427 ca            1 HST       -0.129193
      61 C49          6.7834    30.4553    19.6562 ca            1 HST        0.108807
      62 C50          6.1673    32.0259    21.4228 ca            1 HST        0.108807
      63 C51          8.0978    24.6384    22.2044 ca            1 HST       -0.077493
      64 C52          5.5312    23.9990    21.2613 ca            1 HST       -0.142593
      65 C53          7.2050    23.9143    22.9829 ca            1 HST       -0.129193
      66 C54          7.7030    25.1155    20.9348 ca            1 HST       -0.129193
      67 C55          6.4320    24.7732    20.4749 ca            1 HST        0.108807
      68 C56          5.9310    23.5592    22.5407 ca            1 HST        0.108807
      69 C57          7.1572    24.5506    29.1489 ca            1 HST       -0.077493
      70 C58          4.5029    23.9893    29.6881 ca            1 HST       -0.142593
      71 C59          6.4699    25.3119    30.1587 ca            1 HST       -0.129193
      72 C60          6.5637    23.4506    28.5360 ca            1 HST       -0.129193
      73 C61          5.1893    23.1737    28.7730 ca            1 HST        0.108807
      74 C62          5.1075    25.0146    30.4484 ca            1 HST        0.108807
      75 C63          7.1981    31.0133    28.1140 ca            1 HST       -0.077493
      76 C64          4.4490    31.8766    28.3008 ca            1 HST       -0.142593
      77 C65          6.3313    30.4859    29.0358 ca            1 HST       -0.129193
      78 C66          6.7249    32.0800    27.3283 ca            1 HST       -0.129193
      79 C67          5.4047    32.5171    27.4407 ca            1 HST        0.108807
      80 C68          4.9643    30.8623    29.0966 ca            1 HST        0.108807
      81 O13          6.0393    25.0449    19.1438 os            1 HST       -0.300893
      82 O14          4.4806    22.1803    28.0867 os            1 HST       -0.300893
      83 O15          4.4272    25.7103    31.4423 os            1 HST       -0.300893
      84 O16          6.4590    29.7811    18.4996 os            1 HST       -0.300893
      85 O17          5.2643    32.9431    21.9519 os            1 HST       -0.300893
      86 O18          4.0855    30.1486    29.8958 os            1 HST       -0.300893
      87 O19          4.9592    33.6346    26.7128 os            1 HST       -0.300893
      88 C69          5.0135    21.7892    26.8330 ca            1 HST        0.065707
      89 C70          6.2813    21.1241    24.2951 ca            1 HST       -0.108993
      90 C71          4.8427    22.5707    25.6521 ca            1 HST       -0.176193
      91 C72          5.7566    20.5816    26.6178 ca            1 HST       -0.108993
      92 C73          6.4255    20.2693    25.4091 ca            1 HST       -0.085593
      93 C74          5.4268    22.2143    24.4098 ca            1 HST        0.065707
      94 O20          5.0632    22.9471    23.3656 os            1 HST       -0.300893
      95 C75          6.8370    28.5016    18.1614 ca            1 HST        0.065707
      96 C76          7.6742    25.9272    17.5936 ca            1 HST       -0.108993
      97 C77          7.9830    28.2741    17.3335 ca            1 HST       -0.108993
      98 C78          6.2019    27.3988    18.7590 ca            1 HST       -0.176193
      99 C79          6.5889    26.1152    18.4500 ca            1 HST        0.065707
     100 C80          8.4251    27.0018    17.1023 ca            1 HST       -0.085593
     101 C81          4.5503    27.0549    31.6541 ca            1 HST        0.065707
     102 C82          4.8118    29.7475    32.1816 ca            1 HST       -0.108993
     103 C83          4.7755    27.4444    32.9742 ca            1 HST       -0.108993
     104 C84          4.4877    27.9198    30.6147 ca            1 HST       -0.176193
     105 C85          4.4731    29.2706    30.8972 ca            1 HST        0.065707
     106 C86          4.9380    28.8103    33.1971 ca            1 HST       -0.085593
     107 C87          5.3941    29.2934    34.5750 c             1 HST        0.919807
     108 O21          5.2839    28.5354    35.4853 o             1 HST       -0.835293
     109 C88          8.0859    36.1389    24.2299 c             1 HST        0.919807
     110 O22          8.5644    36.6130    23.2215 o             1 HST       -0.835293
     111 C89          9.5047    26.7481    16.0962 c             1 HST        0.919807
     112 O23         10.1097    25.7012    16.1862 o             1 HST       -0.835293
     113 O24         16.5365    31.4485    28.3943 o             1 HST       -0.865693
     114 O25         15.0171    23.2637    30.5989 o             1 HST       -0.865693
     115 O26         16.6612    22.4112    24.6477 o             1 HST       -0.865693
     116 C90          7.1581    18.9479    25.2749 c             1 HST        0.919807
     117 O27          7.4626    18.5335    24.1827 o             1 HST       -0.835293
     118 O28          8.4244    36.5704    25.3135 o             1 HST       -0.835293
     119 O29          5.9275    30.3752    34.8039 o             1 HST       -0.835293
     120 O30          7.2311    18.2867    26.3239 o             1 HST       -0.835293
     121 O31          9.7326    27.5834    15.2223 o             1 HST       -0.835293
     122 O32         17.1913    30.2574    21.9327 o             1 HST       -0.865693
     123 C91          5.5645    33.6275    23.1069 ca            1 HST        0.065707
     124 C92          6.3357    34.9100    25.4129 ca            1 HST       -0.108993
     125 C93          4.9680    33.2561    24.3154 ca            1 HST       -0.176193
     126 C94          6.5142    34.6900    23.0262 ca            1 HST       -0.108993
     127 C95          6.9377    35.2484    24.2400 ca            1 HST       -0.085593
     128 C96          5.4100    33.9397    25.4749 ca            1 HST        0.065707
     129 H1          13.4168    27.4401    24.0010 ha            1 HST        0.171207
     130 H2           9.7795    27.3991    20.7039 ha            1 HST        0.154707
     131 H3          12.6827    30.6916    22.3599 hc            1 HST        0.058007
     132 H4           9.2484    29.6315    22.9881 h2            1 HST        0.068607
     133 H5          13.3548    29.8822    25.9396 ha            1 HST        0.171207
     134 H6           9.0716    32.2337    25.0777 ha            1 HST        0.154707
     135 H7          11.5868    31.1677    28.7572 hc            1 HST        0.058007
     136 H8           8.6725    29.6995    27.3661 h2            1 HST        0.068607
     137 H9          12.2624    24.0492    22.8597 hc            1 HST        0.058007
     138 H10          8.5356    27.9363    30.2825 ha            1 HST        0.154707
     139 H11          8.6355    23.4949    25.7100 ha            1 HST        0.154707
     140 H12          8.3150    25.7802    27.9956 h2            1 HST        0.068607
     141 H13         13.1046    25.6121    26.1440 ha            1 HST        0.171207
     142 H14         12.9425    27.8096    28.0590 ha            1 HST        0.171207
     143 H15         11.5108    24.5373    29.3222 hc            1 HST        0.058007
     144 H16          9.5381    25.8118    23.3071 h2            1 HST        0.068607
     145 H17         13.8439    29.9578    29.5207 hc            1 HST        0.058607
     146 H18         14.1091    29.6699    27.8331 hc            1 HST        0.058607
     147 H19         14.3772    32.0224    27.2361 hc            1 HST        0.019207
     148 H20         13.4895    32.4371    28.7071 hc            1 HST        0.019207
     149 H21         14.5644    29.3180    24.1428 hc            1 HST        0.058607
     150 H22         14.6699    30.9385    23.6168 hc            1 HST        0.058607
     151 H23         14.4266    28.7644    21.4355 hc            1 HST        0.019207
     152 H24         14.8758    30.3512    21.2280 hc            1 HST        0.019207
     153 H25         14.4184    24.7247    22.6514 hc            1 HST        0.058607
     154 H26         14.4528    25.5673    24.2530 hc            1 HST        0.058607
     155 H27         14.2891    23.3742    25.3252 hc            1 HST        0.019207
     156 H28         14.2799    22.5819    23.6747 hc            1 HST        0.019207
     157 H29         14.1327    25.7915    28.3245 hc            1 HST        0.058607
     158 H30         13.6541    25.2298    29.8424 hc            1 HST        0.058607
     159 H31         13.4174    22.7566    28.4781 hc            1 HST        0.019207
     160 H32         14.5014    23.7300    27.4661 hc            1 HST        0.019207
     161 H33          4.9804    31.6771    19.6521 ha            1 HST        0.159907
     162 H34          7.6777    32.1974    23.0054 ha            1 HST        0.151007
     163 H35          8.5302    29.2865    19.9232 ha            1 HST        0.151007
     164 H36          4.6367    23.6583    20.7484 ha            1 HST        0.159907
     165 H37          7.4973    23.5261    23.9541 ha            1 HST        0.151007
     166 H38          8.5055    25.4821    20.3016 ha            1 HST        0.151007
     167 H39          3.4561    23.7659    29.8712 ha            1 HST        0.159907
     168 H40          6.9950    26.1057    30.6817 ha            1 HST        0.151007
     169 H41          7.0129    22.9825    27.6650 ha            1 HST        0.151007
     170 H42          3.3990    32.1452    28.3687 ha            1 HST        0.159907
     171 H43          6.6700    29.7890    29.7967 ha            1 HST        0.151007
     172 H44          7.4195    32.5990    26.6745 ha            1 HST        0.151007
     173 H45          6.8345    20.8331    23.4070 ha            1 HST        0.165507
     174 H46          4.1914    23.4356    25.7368 ha            1 HST        0.130107
     175 H47          5.9479    19.9100    27.4495 ha            1 HST        0.165507
     176 H48          8.0229    24.8987    17.5860 ha            1 HST        0.165507
     177 H49          8.4747    29.1193    16.8610 ha            1 HST        0.165507
     178 H50          5.3135    27.5738    19.3586 ha            1 HST        0.130107
     179 H51          4.6149    30.7784    32.4610 ha            1 HST        0.165507
     180 H52          4.9154    26.7160    33.7675 ha            1 HST        0.165507
     181 H53          4.4206    27.5933    29.5811 ha            1 HST        0.130107
     182 H54          6.6009    35.3862    26.3522 ha            1 HST        0.165507
     183 H55          4.2802    32.4160    24.2910 ha            1 HST        0.130107
     184 H56          6.9313    34.9253    22.0515 ha            1 HST        0.165507
@<TRIPOS>BOND
       1      126      127 1
       2      125      128 1
       3      124      127 1
       4      124      128 1
       5      123      125 1
       6      123      126 1
       7      116      117 1
       8      116      120 1
       9      111      112 1
      10      111      121 1
      11      109      110 1
      12      109      118 1
      13      109      127 1
      14      107      108 1
      15      107      119 1
      16      106      107 1
      17      104      105 1
      18      103      106 1
      19      102      105 1
      20      102      106 1
      21      101      103 1
      22      101      104 1
      23      100      111 1
      24       98       99 1
      25       97      100 1
      26       96       99 1
      27       96      100 1
      28       95       97 1
      29       95       98 1
      30       93       94 1
      31       92      116 1
      32       91       92 1
      33       90       93 1
      34       89       92 1
      35       89       93 1
      36       88       90 1
      37       88       91 1
      38       87      128 1
      39       86      105 1
      40       85      123 1
      41       84       95 1
      42       83      101 1
      43       82       88 1
      44       81       99 1
      45       80       86 1
      46       79       87 1
      47       78       79 1
      48       77       80 1
      49       76       79 1
      50       76       80 1
      51       75       77 1
      52       75       78 1
      53       74       83 1
      54       73       82 1
      55       72       73 1
      56       71       74 1
      57       70       73 1
      58       70       74 1
      59       69       71 1
      60       69       72 1
      61       68       94 1
      62       67       81 1
      63       66       67 1
      64       65       68 1
      65       64       67 1
      66       64       68 1
      67       63       65 1
      68       63       66 1
      69       62       85 1
      70       61       84 1
      71       60       61 1
      72       59       62 1
      73       58       61 1
      74       58       62 1
      75       57       59 1
      76       57       60 1
      77       55       56 1
      78       55      114 1
      79       54       55 1
      80       53       54 1
      81       51       52 1
      82       51      115 1
      83       50       51 1
      84       49       50 1
      85       47       48 1
      86       47      122 1
      87       46       47 1
      88       45       46 1
      89       43       44 1
      90       43      113 1
      91       42       43 1
      92       41       42 1
      93       40       63 1
      94       38       39 1
      95       38       53 1
      96       37       39 1
      97       36       38 1
      98       35       36 1
      99       34       69 1
     100       33       34 1
     101       32       34 1
     102       31       33 1
     103       31       36 1
     104       30       31 1
     105       29       32 1
     106       29       39 1
     107       28       29 1
     108       27       30 1
     109       26       27 1
     110       26       40 1
     111       25       27 1
     112       25       35 1
     113       24       25 1
     114       24       49 1
     115       23       40 1
     116       21       22 1
     117       21       75 1
     118       20       22 1
     119       20       28 1
     120       19       20 1
     121       19       37 1
     122       18       19 1
     123       18       41 1
     124       17       21 1
     125       16       17 1
     126       15       16 1
     127       15       18 1
     128       14       16 1
     129       13       15 1
     130       12       13 1
     131       11       12 1
     132       11       14 1
     133       10       11 1
     134        9       10 1
     135        9       57 1
     136        8       12 1
     137        8       45 1
     138        7        9 1
     139        6        8 1
     140        4        5 1
     141        4       23 1
     142        3        6 1
     143        2        5 1
     144        2        6 1
     145        2        7 1
     146        1        3 1
     147        1        4 1
     148        1       24 1
     149      126      184 1
     150      125      183 1
     151      124      182 1
     152      104      181 1
     153      103      180 1
     154      102      179 1
     155       98      178 1
     156       97      177 1
     157       96      176 1
     158       91      175 1
     159       90      174 1
     160       89      173 1
     161       78      172 1
     162       77      171 1
     163       76      170 1
     164       72      169 1
     165       71      168 1
     166       70      167 1
     167       66      166 1
     168       65      165 1
     169       64      164 1
     170       60      163 1
     171       59      162 1
     172       58      161 1
     173       54      159 1
     174       54      160 1
     175       53      157 1
     176       53      158 1
     177       50      155 1
     178       50      156 1
     179       49      153 1
     180       49      154 1
     181       46      151 1
     182       46      152 1
     183       45      149 1
     184       45      150 1
     185       42      147 1
     186       42      148 1
     187       41      145 1
     188       41      146 1
     189       40      144 1
     190       38      143 1
     191       37      142 1
     192       35      141 1
     193       34      140 1
     194       30      139 1
     195       28      138 1
     196       24      137 1
     197       21      136 1
     198       18      135 1
     199       14      134 1
     200       13      133 1
     201        9      132 1
     202        8      131 1
     203        5      130 1
     204        3      129 1
@<TRIPOS>SUBSTRUCTURE
       1 HST             1 RESIDUE    0 **** ROOT      0
