@<TRIPOS>MOLECULE
HST
184 204 1 0 1
SMALL
USER_CHARGES
@<TRIPOS>CRYSIN
   42.9250    43.1368    43.2501    90.0000    90.0000    90.0000  1  1
@<TRIPOS>ATOM
       1 C1          20.0957    12.2084    22.3258 ca            1 HST       -0.079381
       2 C2          21.1951    13.6109    20.1631 ca            1 HST        0.094407
       3 C3          21.5045    12.3468    22.1960 ca            1 HST       -0.086793
       4 C4          19.3078    12.7010    21.2571 ca            1 HST        0.094407
       5 C5          19.8084    13.4324    20.1938 ca            1 HST       -0.145993
       6 C6          22.0762    13.0991    21.1399 ca            1 HST       -0.078493
       7 O1          21.6603    14.5899    19.2793 os            1 HST       -0.354893
       8 C7          23.5739    13.3467    21.2095 c3            1 HST        0.028407
       9 C8          21.8127    15.8385    19.8933 c3            1 HST        0.385107
      10 O2          23.2399    16.0502    20.0357 os            1 HST       -0.354893
      11 C9          23.7757    15.9554    21.3126 ca            1 HST        0.094407
      12 C10         23.8818    14.6795    21.9186 ca            1 HST       -0.078493
      13 C11         24.1886    14.6534    23.3071 ca            1 HST       -0.086793
      14 C12         24.0293    17.1007    22.0612 ca            1 HST       -0.145993
      15 C13         24.4741    15.7938    24.0659 ca            1 HST       -0.078493
      16 C14         24.2433    17.0407    23.4262 ca            1 HST        0.094407
      17 O3          24.4305    18.1980    24.1384 os            1 HST       -0.354893
      18 C15         24.8235    15.7379    25.6011 c3            1 HST        0.028407
      19 C16         23.5496    15.9151    26.4203 ca            1 HST       -0.078493
      20 C17         23.1292    17.1222    26.9014 ca            1 HST        0.094407
      21 C18         23.3672    18.6217    25.0221 c3            1 HST        0.385107
      22 O4          23.6653    18.2483    26.3945 os            1 HST       -0.354893
      23 O5          17.9484    12.6975    21.3797 os            1 HST       -0.354893
      24 C19         19.4204    11.4384    23.4276 c3            1 HST        0.028407
      25 C20         19.0769    12.3200    24.5354 ca            1 HST       -0.078493
      26 O6          17.0159    13.0152    23.4606 os            1 HST       -0.354893
      27 C21         17.8789    13.0584    24.5154 ca            1 HST        0.094407
      28 C22         21.9316    17.3026    27.5687 ca            1 HST       -0.145993
      29 C23         21.0090    16.2117    27.7677 ca            1 HST        0.094407
      30 C24         17.5471    13.9506    25.5554 ca            1 HST       -0.145993
      31 C25         18.4296    14.1498    26.5613 ca            1 HST        0.094407
      32 O7          19.7542    16.5865    28.1348 os            1 HST       -0.354893
      33 O8          18.0964    15.0668    27.4982 os            1 HST       -0.354893
      34 C26         18.6532    16.3769    27.2178 c3            1 HST        0.385107
      35 C27         20.0293    12.5998    25.5361 ca            1 HST       -0.086793
      36 C28         19.6739    13.4507    26.6156 ca            1 HST       -0.078493
      37 C29         22.6863    14.8211    26.6734 ca            1 HST       -0.086793
      38 C30         20.5890    13.6986    27.7796 c3            1 HST        0.028407
      39 C31         21.4819    14.8960    27.4537 ca            1 HST       -0.078493
      40 C32         17.3808    13.7162    22.2650 c3            1 HST        0.385107
      41 C33         25.6837    14.4852    25.9922 c3            1 HST       -0.059693
      42 C34         26.5970    14.7877    27.1500 c3            1 HST       -0.187693
      43 C35         27.4081    13.5831    27.5840 c             1 HST        0.906807
      44 O9          28.6239    13.7470    27.7386 o             1 HST       -0.865693
      45 C36         24.4190    12.0916    21.6416 c3            1 HST       -0.059693
      46 C37         24.2431    10.8708    20.6883 c3            1 HST       -0.187693
      47 C38         25.1302     9.6782    21.0052 c             1 HST        0.906807
      48 O10         26.3349     9.6583    20.7860 o             1 HST       -0.865693
      49 C39         20.1485    10.0939    23.7038 c3            1 HST       -0.059693
      50 C40         20.4673     9.3274    22.4403 c3            1 HST       -0.187693
      51 C41         21.1704     7.9742    22.7032 c             1 HST        0.906807
      52 O11         21.6348     7.7675    23.8190 o             1 HST       -0.865693
      53 C42         21.2257    12.3716    28.2840 c3            1 HST       -0.059693
      54 C43         21.8370    12.4271    29.7369 c3            1 HST       -0.187693
      55 C44         22.6994    11.1927    29.9989 c             1 HST        0.906807
      56 O12         23.8988    11.2452    29.7127 o             1 HST       -0.865693
      57 C45         21.1523    16.8759    19.0385 ca            1 HST       -0.077493
      58 C46         19.8547    19.0090    17.6364 ca            1 HST       -0.142593
      59 C47         21.2499    18.2225    19.4689 ca            1 HST       -0.129193
      60 C48         20.2332    16.6150    17.9559 ca            1 HST       -0.129193
      61 C49         19.6049    17.6565    17.2922 ca            1 HST        0.108807
      62 C50         20.7582    19.2331    18.6486 ca            1 HST        0.108807
      63 C51         16.0415    14.2590    21.7237 ca            1 HST       -0.077493
      64 C52         13.7939    15.5535    20.5450 ca            1 HST       -0.142593
      65 C53         14.9919    14.8814    22.5065 ca            1 HST       -0.129193
      66 C54         15.9986    14.4831    20.3649 ca            1 HST       -0.129193
      67 C55         14.8925    15.1278    19.7750 ca            1 HST        0.108807
      68 C56         13.8641    15.5299    21.9534 ca            1 HST        0.108807
      69 C57         17.6340    17.5335    27.3818 ca            1 HST       -0.077493
      70 C58         15.6428    19.6659    27.5207 ca            1 HST       -0.142593
      71 C59         17.9341    18.9254    27.6912 ca            1 HST       -0.129193
      72 C60         16.2447    17.2933    27.1482 ca            1 HST       -0.129193
      73 C61         15.2470    18.3120    27.3005 ca            1 HST        0.108807
      74 C62         16.9379    19.9919    27.7140 ca            1 HST        0.108807
      75 C63         23.2056    20.1224    25.0284 ca            1 HST       -0.077493
      76 C64         22.5683    22.8688    24.7866 ca            1 HST       -0.142593
      77 C65         22.6176    20.8174    26.0905 ca            1 HST       -0.129193
      78 C66         23.4023    20.8230    23.7969 ca            1 HST       -0.129193
      79 C67         23.1485    22.1920    23.7065 ca            1 HST        0.108807
      80 C68         22.2273    22.1395    25.9692 ca            1 HST        0.108807
      81 O13         14.8052    15.2765    18.4195 os            1 HST       -0.300893
      82 O14         13.9353    18.2234    27.0382 os            1 HST       -0.300893
      83 O15         17.2040    21.1608    28.3295 os            1 HST       -0.300893
      84 O16         18.5885    17.3045    16.4465 os            1 HST       -0.300893
      85 O17         20.9402    20.5575    19.1912 os            1 HST       -0.300893
      86 O18         21.7012    22.8708    27.0712 os            1 HST       -0.300893
      87 O19         23.3826    22.8571    22.5320 os            1 HST       -0.300893
      88 C69         13.2715    17.2706    26.2460 ca            1 HST        0.065707
      89 C70         12.1053    15.2141    24.6354 ca            1 HST       -0.108993
      90 C71         13.5242    17.1795    24.8651 ca            1 HST       -0.176193
      91 C72         12.3963    16.3063    26.8338 ca            1 HST       -0.108993
      92 C73         11.8320    15.2380    26.0632 ca            1 HST       -0.085593
      93 C74         12.8680    16.2252    24.0277 ca            1 HST        0.065707
      94 O20         12.9057    16.2487    22.6460 os            1 HST       -0.300893
      95 C75         17.8065    16.2331    16.5531 ca            1 HST        0.065707
      96 C76         16.3102    13.9662    17.0779 ca            1 HST       -0.108993
      97 C77         18.2066    14.9626    15.9884 ca            1 HST       -0.108993
      98 C78         16.6228    16.3830    17.2695 ca            1 HST       -0.176193
      99 C79         15.9145    15.2056    17.5720 ca            1 HST        0.065707
     100 C80         17.4229    13.8400    16.1962 ca            1 HST       -0.085593
     101 C81         18.4833    21.6299    28.5513 ca            1 HST        0.065707
     102 C82         21.0727    22.5913    29.2180 ca            1 HST       -0.108993
     103 C83         18.9287    21.7712    29.8904 ca            1 HST       -0.108993
     104 C84         19.4288    21.9770    27.5358 ca            1 HST       -0.176193
     105 C85         20.6955    22.4468    27.9025 ca            1 HST        0.065707
     106 C86         20.1842    22.2727    30.2315 ca            1 HST       -0.085593
     107 C87         20.5023    22.2472    31.6979 c             1 HST        0.919807
     108 O21         19.8632    21.6742    32.5558 o             1 HST       -0.835293
     109 C88         25.8510    20.9069    18.8470 c             1 HST        0.919807
     110 O22         25.7591    20.2678    17.7849 o             1 HST       -0.835293
     111 C89         17.8397    12.5265    15.4836 c             1 HST        0.919807
     112 O23         17.0242    11.6388    15.4534 o             1 HST       -0.835293
     113 O24         26.9646    12.4455    27.7208 o             1 HST       -0.865693
     114 O25         22.2943    10.2992    30.7242 o             1 HST       -0.865693
     115 O26         21.0578     7.1153    21.9371 o             1 HST       -0.865693
     116 C90         11.1555    14.0656    26.7248 c             1 HST        0.919807
     117 O27         11.2161    12.9669    26.1491 o             1 HST       -0.835293
     118 O28         26.8729    21.1186    19.4970 o             1 HST       -0.835293
     119 O29         21.5905    22.7272    32.0189 o             1 HST       -0.835293
     120 O30         10.6842    14.1974    27.8687 o             1 HST       -0.835293
     121 O31         18.9823    12.3916    15.0951 o             1 HST       -0.835293
     122 O32         24.4931     8.6606    21.2565 o             1 HST       -0.865693
     123 C91         22.1214    20.9808    19.7202 ca            1 HST        0.065707
     124 C92         24.4683    22.0369    20.6495 ca            1 HST       -0.108993
     125 C93         22.1170    21.6557    20.9284 ca            1 HST       -0.176193
     126 C94         23.2865    20.8043    18.9819 ca            1 HST       -0.108993
     127 C95         24.5055    21.3160    19.4377 ca            1 HST       -0.085593
     128 C96         23.2731    22.2446    21.3445 ca            1 HST        0.065707
     129 H1          22.2195    11.9885    22.9307 ha            1 HST        0.171207
     130 H2          19.1513    13.9878    19.5312 ha            1 HST        0.154707
     131 H3          23.9117    13.4840    20.1750 hc            1 HST        0.058007
     132 H4          21.4557    15.8240    20.9295 h2            1 HST        0.068607
     133 H5          24.2150    13.7126    23.8489 ha            1 HST        0.171207
     134 H6          23.7927    18.0656    21.6225 ha            1 HST        0.154707
     135 H7          25.5844    16.5129    25.7548 hc            1 HST        0.058007
     136 H8          22.4580    18.1272    24.6611 h2            1 HST        0.068607
     137 H9          18.4821    11.0479    23.0148 hc            1 HST        0.058007
     138 H10         21.7028    18.3385    27.8012 ha            1 HST        0.154707
     139 H11         16.6638    14.5681    25.4220 ha            1 HST        0.154707
     140 H12         18.9561    16.4640    26.1680 h2            1 HST        0.068607
     141 H13         21.0439    12.2398    25.3931 ha            1 HST        0.171207
     142 H14         22.8946    13.8490    26.2364 ha            1 HST        0.171207
     143 H15         19.9351    14.1102    28.5582 hc            1 HST        0.058007
     144 H16         18.0859    14.4984    22.5688 h2            1 HST        0.068607
     145 H17         25.1241    13.5790    26.2546 hc            1 HST        0.058607
     146 H18         26.4473    14.1836    25.2648 hc            1 HST        0.058607
     147 H19         27.1442    15.7338    27.0567 hc            1 HST        0.019207
     148 H20         25.9410    14.9643    28.0112 hc            1 HST        0.019207
     149 H21         24.4289    11.8451    22.7104 hc            1 HST        0.058607
     150 H22         25.4733    12.3560    21.4936 hc            1 HST        0.058607
     151 H23         23.2150    10.5071    20.8059 hc            1 HST        0.019207
     152 H24         24.3938    11.1537    19.6392 hc            1 HST        0.019207
     153 H25         21.0755    10.2456    24.2703 hc            1 HST        0.058607
     154 H26         19.5171     9.4227    24.2988 hc            1 HST        0.058607
     155 H27         19.4596     9.2351    22.0168 hc            1 HST        0.019207
     156 H28         21.1739     9.8860    21.8144 hc            1 HST        0.019207
     157 H29         20.4484    11.5978    28.2896 hc            1 HST        0.058607
     158 H30         22.0267    12.0755    27.5956 hc            1 HST        0.058607
     159 H31         22.4530    13.3327    29.6757 hc            1 HST        0.019207
     160 H32         20.9437    12.6170    30.3444 hc            1 HST        0.019207
     161 H33         19.2260    19.8183    17.2770 ha            1 HST        0.159907
     162 H34         21.7758    18.3616    20.4088 ha            1 HST        0.151007
     163 H35         20.0711    15.5779    17.6773 ha            1 HST        0.151007
     164 H36         12.8811    15.9500    20.1104 ha            1 HST        0.159907
     165 H37         15.1487    14.8868    23.5811 ha            1 HST        0.151007
     166 H38         16.7647    14.0396    19.7359 ha            1 HST        0.151007
     167 H39         14.8856    20.4440    27.5485 ha            1 HST        0.159907
     168 H40         18.9568    19.1965    27.9359 ha            1 HST        0.151007
     169 H41         15.8896    16.2913    26.9262 ha            1 HST        0.151007
     170 H42         22.2063    23.8912    24.8419 ha            1 HST        0.159907
     171 H43         22.4608    20.4049    27.0828 ha            1 HST        0.151007
     172 H44         23.8161    20.2726    22.9572 ha            1 HST        0.151007
     173 H45         11.8948    14.3376    24.0297 ha            1 HST        0.165507
     174 H46         14.2504    17.8901    24.4817 ha            1 HST        0.130107
     175 H47         12.1423    16.4385    27.8813 ha            1 HST        0.165507
     176 H48         15.7300    13.0619    17.2363 ha            1 HST        0.165507
     177 H49         19.1351    14.8671    15.4333 ha            1 HST        0.165507
     178 H50         16.3380    17.3204    17.7382 ha            1 HST        0.130107
     179 H51         22.0900    22.9163    29.4155 ha            1 HST        0.165507
     180 H52         18.2426    21.4881    30.6832 ha            1 HST        0.165507
     181 H53         19.1331    21.7716    26.5113 ha            1 HST        0.130107
     182 H54         25.3820    22.4523    21.0643 ha            1 HST        0.165507
     183 H55         21.1906    21.7105    21.4926 ha            1 HST        0.130107
     184 H56         23.1459    20.2785    18.0421 ha            1 HST        0.165507
@<TRIPOS>BOND
       1      126      127 1
       2      125      128 1
       3      124      127 1
       4      124      128 1
       5      123      125 1
       6      123      126 1
       7      116      117 1
       8      116      120 1
       9      111      112 1
      10      111      121 1
      11      109      110 1
      12      109      118 1
      13      109      127 1
      14      107      108 1
      15      107      119 1
      16      106      107 1
      17      104      105 1
      18      103      106 1
      19      102      105 1
      20      102      106 1
      21      101      103 1
      22      101      104 1
      23      100      111 1
      24       98       99 1
      25       97      100 1
      26       96       99 1
      27       96      100 1
      28       95       97 1
      29       95       98 1
      30       93       94 1
      31       92      116 1
      32       91       92 1
      33       90       93 1
      34       89       92 1
      35       89       93 1
      36       88       90 1
      37       88       91 1
      38       87      128 1
      39       86      105 1
      40       85      123 1
      41       84       95 1
      42       83      101 1
      43       82       88 1
      44       81       99 1
      45       80       86 1
      46       79       87 1
      47       78       79 1
      48       77       80 1
      49       76       79 1
      50       76       80 1
      51       75       77 1
      52       75       78 1
      53       74       83 1
      54       73       82 1
      55       72       73 1
      56       71       74 1
      57       70       73 1
      58       70       74 1
      59       69       71 1
      60       69       72 1
      61       68       94 1
      62       67       81 1
      63       66       67 1
      64       65       68 1
      65       64       67 1
      66       64       68 1
      67       63       65 1
      68       63       66 1
      69       62       85 1
      70       61       84 1
      71       60       61 1
      72       59       62 1
      73       58       61 1
      74       58       62 1
      75       57       59 1
      76       57       60 1
      77       55       56 1
      78       55      114 1
      79       54       55 1
      80       53       54 1
      81       51       52 1
      82       51      115 1
      83       50       51 1
      84       49       50 1
      85       47       48 1
      86       47      122 1
      87       46       47 1
      88       45       46 1
      89       43       44 1
      90       43      113 1
      91       42       43 1
      92       41       42 1
      93       40       63 1
      94       38       39 1
      95       38       53 1
      96       37       39 1
      97       36       38 1
      98       35       36 1
      99       34       69 1
     100       33       34 1
     101       32       34 1
     102       31       33 1
     103       31       36 1
     104       30       31 1
     105       29       32 1
     106       29       39 1
     107       28       29 1
     108       27       30 1
     109       26       27 1
     110       26       40 1
     111       25       27 1
     112       25       35 1
     113       24       25 1
     114       24       49 1
     115       23       40 1
     116       21       22 1
     117       21       75 1
     118       20       22 1
     119       20       28 1
     120       19       20 1
     121       19       37 1
     122       18       19 1
     123       18       41 1
     124       17       21 1
     125       16       17 1
     126       15       16 1
     127       15       18 1
     128       14       16 1
     129       13       15 1
     130       12       13 1
     131       11       12 1
     132       11       14 1
     133       10       11 1
     134        9       10 1
     135        9       57 1
     136        8       12 1
     137        8       45 1
     138        7        9 1
     139        6        8 1
     140        4        5 1
     141        4       23 1
     142        3        6 1
     143        2        5 1
     144        2        6 1
     145        2        7 1
     146        1        3 1
     147        1        4 1
     148        1       24 1
     149      126      184 1
     150      125      183 1
     151      124      182 1
     152      104      181 1
     153      103      180 1
     154      102      179 1
     155       98      178 1
     156       97      177 1
     157       96      176 1
     158       91      175 1
     159       90      174 1
     160       89      173 1
     161       78      172 1
     162       77      171 1
     163       76      170 1
     164       72      169 1
     165       71      168 1
     166       70      167 1
     167       66      166 1
     168       65      165 1
     169       64      164 1
     170       60      163 1
     171       59      162 1
     172       58      161 1
     173       54      159 1
     174       54      160 1
     175       53      157 1
     176       53      158 1
     177       50      155 1
     178       50      156 1
     179       49      153 1
     180       49      154 1
     181       46      151 1
     182       46      152 1
     183       45      149 1
     184       45      150 1
     185       42      147 1
     186       42      148 1
     187       41      145 1
     188       41      146 1
     189       40      144 1
     190       38      143 1
     191       37      142 1
     192       35      141 1
     193       34      140 1
     194       30      139 1
     195       28      138 1
     196       24      137 1
     197       21      136 1
     198       18      135 1
     199       14      134 1
     200       13      133 1
     201        9      132 1
     202        8      131 1
     203        5      130 1
     204        3      129 1
@<TRIPOS>SUBSTRUCTURE
       1 HST             1 RESIDUE    0 **** ROOT      0
